<?xml version="1.0" encoding="UTF-8"?>

<!-- generated on 2023-06-20 21:56:40.989786 by randomTrips.py v1_16_0+0000-94ec4c6cd72
<configuration>
    <additional-files value="osm_stops.add.xml,osm_pt.rou.xml"/>
    <begin value="0"/>
    <end value="39600"/>
    <fringe-factor value="1"/>
    <insertion-density value="11.0"/>
    <net-file value="osm.netbaseline.xml.gz"/>
    <persontrips value="True"/>
    <route-file value="osm.pedestrian.rou.xml"/>
    <trip-attributes value="modes=&quot;public&quot;"/>
    <prefix value="ped"/>
    <vehicle-class value="pedestrian"/>
    <persontrip.walk-opposite-factor value="0.8"/>
</configuration>
-->

<!-- generated on 2023-06-20 21:56:39 by Eclipse SUMO duarouter Version 1.16.0
<configuration xmlns:xsi="http://www.w3.org/2001/XMLSchema-instance" xsi:noNamespaceSchemaLocation="http://sumo.dlr.de/xsd/duarouterConfiguration.xsd">

    <input>
        <net-file value="osm.netbaseline.xml.gz"/>
        <additional-files value="osm_stops.add.xml,osm_pt.rou.xml"/>
        <route-files value="trips.trips.xml"/>
    </input>

    <output>
        <output-file value="osm.pedestrian.rou.xml"/>
        <alternatives-output value="NUL"/>
    </output>

    <processing>
        <persontrip.walk-opposite-factor value="0.8"/>
    </processing>

    <time>
        <begin value="0"/>
        <end value="39600"/>
    </time>

    <report>
        <no-warnings value="true"/>
        <ignore-errors value="true"/>
        <no-step-log value="true"/>
    </report>

</configuration>
-->

<routes xmlns:xsi="http://www.w3.org/2001/XMLSchema-instance" xsi:noNamespaceSchemaLocation="http://sumo.dlr.de/xsd/routes_file.xsd">
    <vType id="ped_pedestrian" vClass="pedestrian"/>
    <person id="ped0" type="ped_pedestrian" depart="0.00">
        <walk edges="39598458#1 39598458#2 704509573#0 306780234#3 453761206#0 453761206#1 453761206#2 453761206#3 453761206#4 453761206#7 453761206#8 453761206#9 39597779#1 310408556#2 -310408556#2 39597779#0 39597607#2 39597607#1 -1054250665#1 -1054250665#0"/>
    </person>
    <person id="ped1" type="ped_pedestrian" depart="5.56">
        <walk edges="-453762946#0 -453762947 704509573#6 39598714#0 39598714#1 39598760#0 39598760#1 39598760#2 39598760#3 -39598458#2 1083211597#1 456405100#2 39633589 -39609163#0"/>
    </person>
    <person id="ped3" type="ped_pedestrian" depart="16.68">
        <walk edges="456405100#2 1083211596#2 1083211596#1 1083211596#0 1016548268#1 1016548268#0 -1028339894 30912883#0 30912883#1 -30912884"/>
    </person>
    <person id="ped5" type="ped_pedestrian" depart="27.79">
        <walk edges="-39607956#6 -39607956#7 -39598589#2 -39598589#0 306780234#3"/>
    </person>
    <person id="ped6" type="ped_pedestrian" depart="33.35">
        <walk edges="-1054250665#0 1054250665#1 39597607#1 39597607#2 39597779#0 -310408556#2 310408556#2 39597779#1 453761206#9 453761206#8 453761206#7 453761206#4 453761206#3 453761206#2 453761206#1 453761206#0 306780234#3 -39598589#0 -39598760#2"/>
    </person>
    <person id="ped7" type="ped_pedestrian" depart="38.91">
        <walk edges="39598605#0 39598760#2 -39598589#0 306780234#3 453761206#0 453761206#1 453761206#2 39597960#1 -309613711#0 -309613711#1 309613711#1 -309613712#0 -309613710#1 309613710#1 -309613712#1 -309613709#1 309613709#1"/>
    </person>
    <person id="ped8" type="ped_pedestrian" depart="44.47">
        <walk edges="-39607956#7 -39598589#2 -39598589#0 -306780234#3 -306780234#2 39590128#0 -39587108#0 308771430 1017120223 39586894#0"/>
    </person>
    <person id="ped10" type="ped_pedestrian" depart="55.59">
        <walk edges="448568807 -39607956#7 -39607956#6 -39607956#5 263330574 30912891 -263330569 -263330686 741767469#2 -39598786#0 39598880"/>
    </person>
    <person id="ped11" type="ped_pedestrian" depart="61.15">
        <walk edges="-986533205 -453762944#3 30912941#0 30912941#2 1014684309 453761206#0 453761206#1 453761206#2 453761206#3 453761206#4 453761206#7 310786269 -39597607#2 -39597607#1"/>
    </person>
    <person id="ped12" type="ped_pedestrian" depart="66.71">
        <walk edges="868023414#0 868023414#1 456405094#0 448809958 39608992#1 -1016388206#5 39608490#0 -914265951"/>
    </person>
    <person id="ped13" type="ped_pedestrian" depart="72.26">
        <walk edges="-30912941#2 1014684309 306780234#2 306780234#1 39598055 482122892#1 309609104 -309609104 309609103#2 -309609103#2"/>
    </person>
    <person id="ped14" type="ped_pedestrian" depart="77.82">
        <walk edges="453762943#1 39587067 308771430 308771431#1 39587108#2"/>
    </person>
    <person id="ped15" type="ped_pedestrian" depart="83.38">
        <walk edges="448809958 456405094#0 456405094#1 39609005#0"/>
    </person>
    <person id="ped16" type="ped_pedestrian" depart="88.94">
        <walk edges="309387164 -39597607#2 310786269 453761206#7 453761206#4 453761206#3 453761206#2 453761206#1 453761206#0 306780234#3 704509573#0 39598458#2 39598458#1 -39598458#0 1016388206#3 -1016388206#5 191987944 212710692#0 212710692#1 30912883#0 30912883#1 -30912884 30912884 30912883#2 28785456 -448867798#3 -448867798#2 -868082261#2 868082273"/>
    </person>
    <person id="ped18" type="ped_pedestrian" depart="100.06">
        <walk edges="453761206#4 453761206#7 310786269 -39597607#2 -39597607#1 -39597607#0 39597607#0"/>
    </person>
    <person id="ped20" type="ped_pedestrian" depart="111.18">
        <walk edges="39607956#0 -263330686 -263330569 30912891 263330574 -39607956#5 -39607956#6 -39607956#7 -1016388206#2 -1016388206#3 -1016388206#5 191987944 -212710692#0"/>
    </person>
    <person id="ped22" type="ped_pedestrian" depart="122.29">
        <walk edges="-307088020 307088020 -482122892#3 -482122892#4 -482122892#5 178413106 453761206#1 453761206#0 306780234#3 704509573#1 704509573#2 -39598629#0 -39650114#3"/>
    </person>
    <person id="ped23" type="ped_pedestrian" depart="127.85">
        <walk edges="-309609104 309609104 482122892#1 39598055 306780234#1 306780234#2 1014684309 453762943#1 453762943#0 -453762946#1"/>
    </person>
    <person id="ped24" type="ped_pedestrian" depart="133.41">
        <walk edges="39598232#0 39598458#0 -1016388206#3 39608973#1 1016192005#0"/>
    </person>
    <person id="ped25" type="ped_pedestrian" depart="138.97">
        <walk edges="1016388206#2 -39607956#7 -39607956#6 -39607956#5 263330574 30912891 -263330569 -263330686 741767469#2 39598786#0 -39598880"/>
    </person>
    <person id="ped26" type="ped_pedestrian" depart="144.53">
        <walk edges="-453761207#2 -453761207#0 -13715562 1014684310#2 1014684310#1 1014684310#0 453761206#9 453761206#8 453761206#7 453761206#4 453761206#3 453761206#2 453761206#1 453761206#0 306780234#3 704509573#1 704509573#2 704509573#3 704509573#4 704509573#5 704509573#6"/>
    </person>
    <person id="ped27" type="ped_pedestrian" depart="150.09">
        <walk edges="39598589#1 39598589#0 -306780234#3 -306780234#2 39590128#0"/>
    </person>
    <person id="ped28" type="ped_pedestrian" depart="155.65">
        <walk edges="-39598629#0 -39598629#1 39598760#1 -39598760#2 -39598760#3 39598458#1 39598458#0 -1016388206#3 39608973#1 448809958 456405094#0 456405094#1 39609005#0"/>
    </person>
    <person id="ped29" type="ped_pedestrian" depart="161.20">
        <walk edges="-39598458#2 1083211597#1 1083211596#2 1083211596#1 1083211596#0 1016548268#1"/>
    </person>
    <person id="ped30" type="ped_pedestrian" depart="166.76">
        <walk edges="914265953#0 453761206#4 453761206#3 453761206#2 453761206#1 453761206#0 306780234#3 704509573#0 39598458#2 39598458#1"/>
    </person>
    <person id="ped33" type="ped_pedestrian" depart="183.44">
        <walk edges="-39650114#1 -39650114#2 39650114#3 -39598629#0 704509573#2 704509573#1 306780234#3 453761206#0 453761206#1 453761206#2 453761206#3 453761206#4 453761206#7 453761206#8 453761206#9 39597779#1 310408556#2 -310408556#2 39597779#0 39597607#2 39597607#1 -1054250665#1 1054250667 -1054250667"/>
    </person>
    <person id="ped34" type="ped_pedestrian" depart="189.00">
        <walk edges="-769970145#2 -769970145#0 -39598629#3 -39598629#2 -39598760#0 -39598714#1 -39598714#0 704509573#6 -453762947 -453762946#0 -453762946#1 -453762944#0"/>
    </person>
    <person id="ped35" type="ped_pedestrian" depart="194.56">
        <walk edges="-39601146 -39598786#1 -39598786#0 741767469#2"/>
    </person>
    <person id="ped36" type="ped_pedestrian" depart="200.12">
        <walk edges="456405094#0 448809958 39608973#1 -1016388206#3 39598458#0 39598458#1 -39598760#3 -39598760#2 -39598760#1 39598629#2 -39598629#3 769970145#0 -769970145#2"/>
    </person>
    <person id="ped37" type="ped_pedestrian" depart="205.67">
        <walk edges="39598605#2 39650114#4 39650114#3 -39650114#2 -39650114#1 -39650114#0 -448195881#2 -448195881#1 -39598786#1 -39598786#0 1041557571"/>
    </person>
    <person id="ped38" type="ped_pedestrian" depart="211.23">
        <walk edges="51228956#1 453762943#1 1014684309 -306780234#3 704509573#0 39598458#2 39598458#1 -39598458#0 1016388206#3 -1016388206#5 191987944 212710692#0 212710692#1"/>
    </person>
    <person id="ped39" type="ped_pedestrian" depart="216.79">
        <walk edges="-453761207#2 -453761207#0 -13715562 1014684310#2 1014684310#1 1014684310#0 453761206#9 453761206#8 453761206#7 453761206#4 453761206#3 453761206#2 453761206#1 453761206#0 306780234#3 704509573#1 704509573#2 -39598629#0 39650114#3 -39650114#2 -39650114#1 -39650114#0 -448195881#2"/>
    </person>
    <person id="ped41" type="ped_pedestrian" depart="227.91">
        <walk edges="37345789 -37345789 212710696#0 30912883#2 30912884 -30912884 30912883#1 30912883#0 212710692#1 212710692#0 191987944 -1016388206#5 1016388206#3 -39598458#0 39598458#1 39598458#2 704509573#0 306780234#3 306780234#2 306780234#1 39598055 482122892#0"/>
    </person>
    <person id="ped42" type="ped_pedestrian" depart="233.47">
        <walk edges="1054250665#1 39597607#1 39597607#2 39597779#0 -310408556#2 310408556#2 39597779#1 453761206#9 453761206#8 453761206#7 453761206#4 453761206#3 453761206#2 453761206#1 453761206#0 306780234#3 -39598589#0 -39598589#2 -39607956#7 -39607956#6"/>
    </person>
    <person id="ped45" type="ped_pedestrian" depart="250.14">
        <walk edges="-309613710#1 -309613712#0 309613711#1 -309613711#1 -309613711#0 39597960#1 453761206#3 453761206#4 453761206#7 453761206#8 453761206#9 39597779#1"/>
    </person>
    <person id="ped47" type="ped_pedestrian" depart="261.26">
        <walk edges="-263330574 263330574 -39607956#5 -39607956#6 -39607956#7 1016388206#2 1016388206#3 1016388206#5 39608490#0 39608490#1 1016548268#0 1016548268#1 1016548269"/>
    </person>
    <person id="ped48" type="ped_pedestrian" depart="266.82">
        <walk edges="E2 39607956#0 -263330686 -263330569 30912891"/>
    </person>
    <person id="ped50" type="ped_pedestrian" depart="277.94">
        <walk edges="-1016388206#5 39608733 39608754"/>
    </person>
    <person id="ped51" type="ped_pedestrian" depart="283.50">
        <walk edges="39598760#1 39598629#1 39598629#0 704509573#2 704509573#1 306780234#3 453761206#0 453761206#1 453761206#2 453761206#3 453761206#4 453761206#7 310786269 -39597607#2 309387164"/>
    </person>
    <person id="ped52" type="ped_pedestrian" depart="289.06">
        <walk edges="-453761207#2 -453761207#0 -13715562 1014684310#2 1014684310#1 1014684310#0 453761206#9 453761206#8 453761206#7 453761206#4 453761206#3 453761206#2 453761206#1 453761206#0 306780234#3 704509573#0 39598458#2 39598458#1"/>
    </person>
    <person id="ped53" type="ped_pedestrian" depart="294.61">
        <walk edges="-309613711#0 39597960#1 453761206#2 453761206#1 453761206#0 306780234#3 704509573#0 39598458#2 -39598458#2 1083211597#1 1083211596#2"/>
    </person>
    <person id="ped54" type="ped_pedestrian" depart="300.17">
        <walk edges="206544631 453761206#4 453761206#3 453761206#2 453761206#1 453761206#0 306780234#3 704509573#1 704509573#2 39598629#0 39598629#1 39598629#2 -39598629#3 769970145#0 -769970145#2 769970145#2"/>
    </person>
    <person id="ped55" type="ped_pedestrian" depart="305.73">
        <walk edges="456405093 1016192005#0 39608973#1 -1016388206#3 39598458#0 39598458#1 39598458#2 704509573#0 306780234#3 453761206#0 453761206#1 453761206#2 453761206#3 453761206#4 453761206#7 453761206#8 453761206#9 1014684310#0 1014684310#1 1014684310#2 -13715562 -453761207#0"/>
    </person>
    <person id="ped56" type="ped_pedestrian" depart="311.29">
        <walk edges="306780234#1 306780234#2 306780234#3 704509573#1 704509573#2 39598629#0 39598629#1 39598629#2 -39598629#3"/>
    </person>
    <person id="ped58" type="ped_pedestrian" depart="322.41">
        <walk edges="-482122892#3 -482122892#4 -482122892#5 178413106 453761206#1 453761206#0 306780234#3 704509573#0 39598458#2 39598458#1"/>
    </person>
    <person id="ped59" type="ped_pedestrian" depart="327.97">
        <walk edges="39590128#0 -306780234#2 453761206#0 453761206#1 453761206#2 453761206#3 453761206#4 453761206#7 310786269 -39597607#2 -39597607#1 -39597607#0"/>
    </person>
    <person id="ped60" type="ped_pedestrian" depart="333.53">
        <walk edges="39631697 -453762944#1 -453762944#3 30912941#0 306780233#0 -39587108#0 39590128#0 306780234#1 39598055 482122892#1 309609104 -309609104 309609103#2"/>
    </person>
    <person id="ped62" type="ped_pedestrian" depart="344.64">
        <walk edges="-1016192005#0 39608973#1 -1016388206#5 191987944 212710692#0 212710692#1 30912883#0 30912883#1 -30912884 30912884 30912883#2 28785456 -448867798#3 -448867798#2 -868082261#2 868082273 -868082261#0"/>
    </person>
    <person id="ped63" type="ped_pedestrian" depart="350.20">
        <walk edges="-1017125564 39586894#2 -39588456 -308771430 -39587108#0 39590128#0 -306780234#2 -306780234#3 704509573#1 704509573#2 704509573#3"/>
    </person>
    <person id="ped64" type="ped_pedestrian" depart="355.76">
        <walk edges="456405094#1 456405094#0 448809958 39608973#1 -1016388206#3 39598458#0 39598458#1 39598458#2 704509573#0 306780234#3 453761206#0 453761206#1 453761206#2 453761206#3 453761206#4"/>
    </person>
    <person id="ped65" type="ped_pedestrian" depart="361.32">
        <walk edges="-741767469#2 39607956#0 -39601146 -39598745#0 -252524487"/>
    </person>
    <person id="ped66" type="ped_pedestrian" depart="366.88">
        <walk edges="456405094#0 448809958 39608973#1 -1016388206#3 39598458#0 39598458#1 39598458#2 704509573#0 306780234#3 453761206#0 453761206#1 453761206#2 453761206#3 453761206#4 453761206#7 453761206#8 453761206#9 1014684310#0 1014684310#1 1014684310#2 -13797599#3 755512797#1"/>
    </person>
    <person id="ped67" type="ped_pedestrian" depart="372.44">
        <walk edges="-308771431#1 39587108#0 39587067 453762943#1 453762943#0 -453762946#1 -453762946#0 -453762947 -448195881#3 -448195881#2 -448195881#1 -39601146 39607956#0 -263330686 -263330569 30912891 263330575"/>
    </person>
    <person id="ped68" type="ped_pedestrian" depart="378.00">
        <walk edges="-306714013 39609163#1"/>
    </person>
    <person id="ped69" type="ped_pedestrian" depart="383.55">
        <walk edges="39633589 456405100#2 1083211597#1 -39598458#2 39598458#2 704509573#0 306780234#3 453761206#0 453761206#1 453761206#2 453761206#3 453761206#4 453761206#7 453761206#8 453761206#9 39597779#1 310408556#2 -310408556#1"/>
    </person>
    <person id="ped70" type="ped_pedestrian" depart="389.11">
        <walk edges="263330569 -263330569 -263330686 39607956#0 -39601146 -448195881#1 -448195881#2 -39650114#0 -39650114#1 -39650114#2 39650114#3 -39598629#0 704509573#2 704509573#1 306780234#3 453761206#0 453761206#1 453761206#2 39597960#1 -309613711#0 -309613711#1 309613711#1 -309613712#0 -309613710#1 309613710#1"/>
    </person>
    <person id="ped73" type="ped_pedestrian" depart="405.79">
        <walk edges="309609103#2 -309609104 309609104 482122892#1 39598055 306780234#1 306780234#2 306780234#3 704509573#0 39598458#2 39598458#1 39598458#0 -1016388206#3 39608973#1 448809958 456405094#0 456405094#1 39609005#0"/>
    </person>
    <person id="ped74" type="ped_pedestrian" depart="411.35">
        <walk edges="-39598760#3 -39598760#2 -39598760#1 39598629#2 -39598629#3 -769970145#0"/>
    </person>
    <person id="ped75" type="ped_pedestrian" depart="416.91">
        <walk edges="E2 39607956#5 39607956#6 39598605#0"/>
    </person>
    <person id="ped76" type="ped_pedestrian" depart="422.47">
        <walk edges="1083211597#1 1083211596#2 1083211596#1 1083211596#0 1016548268#1 1016548268#0 -1028339894 30912883#0"/>
    </person>
    <person id="ped77" type="ped_pedestrian" depart="428.02">
        <walk edges="-309613712#1 309613710#1 -309613710#1 -309613712#0 309613711#1 -309613711#1 -309613711#0 39597960#1 453761206#2 453761206#1 453761206#0 306780234#3 704509573#0 39598458#2 -39598458#2 1083211597#1 456405100#2 39633589 -39609163#0"/>
    </person>
    <person id="ped78" type="ped_pedestrian" depart="433.58">
        <walk edges="-914265952 1083211596#1 1083211596#0 1016548268#1 1016548268#0 -1028339894 30912883#0 30912883#1 -30912884 30912884 30912883#2 -37345793 37345793"/>
    </person>
    <person id="ped79" type="ped_pedestrian" depart="439.14">
        <walk edges="-39650114#1 39598714#1 39598760#0 39598760#1 -39598760#2 -39598589#2 -39607956#7 -39607956#6"/>
    </person>
    <person id="ped80" type="ped_pedestrian" depart="444.70">
        <walk edges="-306780234#0 306780234#1 306780234#2 453761206#0 453761206#1 453761206#2 39597960#1"/>
    </person>
    <person id="ped82" type="ped_pedestrian" depart="455.82">
        <walk edges="453762946#1 453762943#0 453762943#1 1014684309 306780234#2 306780234#1 -306780234#0"/>
    </person>
    <person id="ped83" type="ped_pedestrian" depart="461.38">
        <walk edges="-39650163 39650114#1 39598714#0"/>
    </person>
    <person id="ped85" type="ped_pedestrian" depart="472.49">
        <walk edges="704509573#5 704509573#4 704509573#3 704509573#2 704509573#1 306780234#3 453761206#0 453761206#1 453761206#2 453761206#3 453761206#4 453761206#7 453761206#8 453761206#9 39597779#1 310408556#2"/>
    </person>
    <person id="ped86" type="ped_pedestrian" depart="478.05">
        <walk edges="252524487 39598714#1 39650114#1"/>
    </person>
    <person id="ped87" type="ped_pedestrian" depart="483.61">
        <walk edges="448809958 39608973#1 -1016388206#3 39598458#0 39598458#1 -39598760#3 -39598760#2 -39598760#1 39598629#2 -39598745#1 -39598745#0"/>
    </person>
    <person id="ped88" type="ped_pedestrian" depart="489.17">
        <walk edges="-309609103#2 309609103#2 -309609104 309609104 482122892#1 39598055 306780234#1 306780234#2 306780234#3 704509573#0 39598458#2 -39598458#2 1083211597#1 1083211596#2 1083211596#1"/>
    </person>
    <person id="ped90" type="ped_pedestrian" depart="500.29">
        <walk edges="39609005#0 456405094#1 456405094#0 448809958 39608973#1 -1016388206#3 39598458#0 39598458#1 -39598760#3 -39598760#2 -39598760#1 -39598629#2 39598745#1 39598745#0"/>
    </person>
    <person id="ped91" type="ped_pedestrian" depart="505.85">
        <walk edges="914265946 263330574 -39607956#5 -39607956#6 -39607956#7 -39598589#2 -39598589#0 306780234#3 306780234#2 306780234#1 39598055 482122892#1 309609104 -309609104 309609103#2 -309609103#2"/>
    </person>
    <person id="ped92" type="ped_pedestrian" depart="511.41">
        <walk edges="1054250667 1054250665#1 39597607#1 39597607#2 39597779#0 -310408556#2 310408556#2 39597779#1 453761206#9 453761206#8 453761206#7 453761206#4 453761206#3 453761206#2 453761206#1 453761206#0 1014684309 30912941#2 30912941#0 -453762944#3 -986533205"/>
    </person>
    <person id="ped93" type="ped_pedestrian" depart="516.96">
        <walk edges="453762947 -448195881#3"/>
    </person>
    <person id="ped94" type="ped_pedestrian" depart="522.52">
        <walk edges="-39598745#0 -39598745#1 39598629#2 39598629#1 39598629#0 704509573#2 704509573#1 306780234#3 453761206#0 453761206#1 178413106"/>
    </person>
    <person id="ped96" type="ped_pedestrian" depart="533.64">
        <walk edges="-448195881#3 704509573#6 704509573#5 704509573#4 704509573#3 704509573#2 704509573#1 704509573#0"/>
    </person>
    <person id="ped97" type="ped_pedestrian" depart="539.20">
        <walk edges="13797599#2 1014684310#2 1014684310#1 1014684310#0 453761206#9 453761206#8 453761206#7 453761206#4 453761206#3 453761206#2 453761206#1 453761206#0 1014684309 453762943#1 453762943#0 453762946#1"/>
    </person>
    <person id="ped98" type="ped_pedestrian" depart="544.76">
        <walk edges="309613710#1 -309613710#1 -309613712#0 309613711#1 -309613711#1 -309613711#0 39597960#1 453761206#2 453761206#1 453761206#0 306780234#3 704509573#0 39598458#2 39598458#1 -39598458#0 1016388206#3 -1016388206#5 191987944 212710692#0 212710692#1 30912883#0 30912883#1 -30912884 30912884 30912883#2 -212710696#0"/>
    </person>
    <person id="ped101" type="ped_pedestrian" depart="561.43">
        <walk edges="453762943#1 1014684309 -306780234#3 -39598589#0"/>
    </person>
    <person id="ped102" type="ped_pedestrian" depart="566.99">
        <walk edges="263330575 30912891 -263330569 -263330686 -39607956#0"/>
    </person>
    <person id="ped103" type="ped_pedestrian" depart="572.55">
        <walk edges="1054250667 1054250665#1 39597607#1 39597607#2 39597779#0 -310408556#2 310408556#2 39597779#1 453761206#9 453761206#8 453761206#7 453761206#4 453761206#3 453761206#2 453761206#1 453761206#0 306780234#3 704509573#1 704509573#2 -39598629#0 -39598629#1 -39598629#2 39598745#1 -252524487"/>
    </person>
    <person id="ped104" type="ped_pedestrian" depart="578.11">
        <walk edges="1016548268#1 1083211596#0 1083211596#1 914265952"/>
    </person>
    <person id="ped105" type="ped_pedestrian" depart="583.67">
        <walk edges="-453761207#2 -453761207#0 -13715562 1014684310#2 1014684310#1 1014684310#0 453761206#9 453761206#8 453761206#7 453761206#4 453761206#3 453761206#2 453761206#1 453761206#0 306780234#3 704509573#1 704509573#2 -39598629#0 39650114#3 39650114#2 39650114#1"/>
    </person>
    <person id="ped107" type="ped_pedestrian" depart="594.79">
        <walk edges="868023414#0 868023414#1 456405094#0 448809958 39608973#1 -1016388206#3 -1016388206#2 -39607956#7 -39607956#6 -39607956#5 263330574 -263330574 -E2 E2"/>
    </person>
    <person id="ped108" type="ped_pedestrian" depart="600.35">
        <walk edges="309613711#1 -309613711#1 -309613711#0 39597960#1 453761206#2 453761206#1 453761206#0 306780234#3 704509573#0 39598458#2 39598458#1 -39598458#0 1016388206#3 -1016388206#5 39608733"/>
    </person>
    <person id="ped109" type="ped_pedestrian" depart="605.90">
        <walk edges="-39597607#1 -39597607#2 310786269 453761206#7 453761206#4 453761206#3 453761206#2 178413106 -482122892#5 -482122892#4 -482122892#3 307088020 -307088020 -482122892#2"/>
    </person>
    <person id="ped112" type="ped_pedestrian" depart="622.58">
        <walk edges="-252524487 39598745#1 -39598629#2 -39598760#1 -39598760#2 -39598760#3 39598458#1 -39598458#0 1016388206#3 -1016388206#5 191987944 212710692#0 212710692#1 30912883#0 30912883#1 -30912884 30912884 30912883#2 212710696#0 -37345789 37345789"/>
    </person>
    <person id="ped113" type="ped_pedestrian" depart="628.14">
        <walk edges="306780234#2 39590128#0 -39587108#0 306780233#0 30912941#0 -453762944#3 453762944#1"/>
    </person>
    <person id="ped114" type="ped_pedestrian" depart="633.70">
        <walk edges="-39597607#2 310786269 453761206#7 453761206#4 453761206#3 453761206#2 453761206#1 453761206#0 306780234#3 704509573#0 39598458#2 39598458#1 39598458#0 -1016388206#3 39608973#1 448809958 456405094#0 868023414#1 868023415"/>
    </person>
    <person id="ped115" type="ped_pedestrian" depart="639.26">
        <walk edges="-307088020 307088020 -482122892#3 -482122892#4 -482122892#5 178413106 453761206#1 453761206#0 306780234#3 704509573#1 704509573#2 -39598629#0 39650114#3 -39650114#2 -39650114#1 -39598714#1"/>
    </person>
    <person id="ped116" type="ped_pedestrian" depart="644.82">
        <walk edges="39586894#2 -39588456 -308771430 306780233#0 30912941#0 -453762944#3 453762944#1 -453762944#0 -453762946#1 -453762946#0 -453762947 -448195881#3 -448195881#2 -448195881#1 39598745#0"/>
    </person>
    <person id="ped117" type="ped_pedestrian" depart="650.37">
        <walk edges="-39650114#4 39598629#0 704509573#2 704509573#1 306780234#3 453761206#0 453761206#1 453761206#2 39597960#1 -309613711#0 -309613711#1 309613711#1 -309613712#0 -309613710#1 309613710#1 -309613712#1"/>
    </person>
    <person id="ped118" type="ped_pedestrian" depart="655.93">
        <walk edges="456405100#1 456405100#0 39598232#0 39598458#1 -39598760#3 -39598760#2 -39598760#1 -39598760#0 -39598714#1 -39650114#0 -448195881#2"/>
    </person>
    <person id="ped119" type="ped_pedestrian" depart="661.49">
        <walk edges="39586894#2 -39588456 -308771430 -39587108#0 39590128#0 -306780234#2 453761206#0 453761206#1 453761206#2 453761206#3 453761206#4 453761206#7 453761206#8 453761206#9 39597779#1 310408556#2 -310408556#2 39597779#0 39597607#2 39597607#1"/>
    </person>
    <person id="ped121" type="ped_pedestrian" depart="672.61">
        <walk edges="30912883#2 30912884 -30912884 30912883#1 30912883#0 212710692#1 212710692#0 191987944 -1016388206#5 1016388206#3 -39598458#0 39598458#1 -39598760#3 -39598760#2 39598760#1 39598760#0 39598714#1 39598714#0 704509573#5"/>
    </person>
    <person id="ped122" type="ped_pedestrian" depart="678.17">
        <walk edges="-39598786#0 741767469#2 -263330686 -263330569 30912891 263330574 -39607956#5 -39607956#6 -39607956#7 1016388206#2 1016388206#3 1016388206#5 39608490#0 39608490#1"/>
    </person>
    <person id="ped123" type="ped_pedestrian" depart="683.73">
        <walk edges="-39650163 39650114#1 -39650114#0 -448195881#2 -448195881#1 -39598786#1 -39598786#0 1041557571"/>
    </person>
    <person id="ped124" type="ped_pedestrian" depart="689.29">
        <walk edges="39598714#1 -39650114#1 -39650114#2 39650114#3 -39598629#0 704509573#2 704509573#1 306780234#3 453761206#0 453761206#1 178413106 -482122892#5 -482122892#4"/>
    </person>
    <person id="ped126" type="ped_pedestrian" depart="700.40">
        <walk edges="-306780234#1 306780234#1 306780234#2 306780234#3 704509573#0 39598458#2 39598458#1 -39598458#0 1016388206#3 -1016388206#5 191987944 212710692#0 212710692#1"/>
    </person>
    <person id="ped128" type="ped_pedestrian" depart="711.52">
        <walk edges="-306780234#1 306780234#1 306780234#2 306780234#3 704509573#1 704509573#2 -39598629#0 39650114#3 -39650114#2 -39650114#1 -39650114#0 -448195881#2 -448195881#1 -39601146 -39607956#0"/>
    </person>
    <person id="ped129" type="ped_pedestrian" depart="717.08">
        <walk edges="-453761207#2 -453761207#0 -13715562 1014684310#2 1014684310#1 1014684310#0 453761206#9 453761206#8 453761206#7 453761206#4 453761206#3 453761206#2 453761206#1 453761206#0 306780234#3 704509573#1 704509573#2 704509573#3 704509573#4 704509573#5"/>
    </person>
    <person id="ped130" type="ped_pedestrian" depart="722.64">
        <walk edges="456405094#1"/>
    </person>
    <person id="ped131" type="ped_pedestrian" depart="728.20">
        <walk edges="1016388206#2 39598589#1 39598589#0 306780234#3 453761206#0 453761206#1 453761206#2 453761206#3 453761206#4 453761206#7 310786269 -39597607#2"/>
    </person>
    <person id="ped132" type="ped_pedestrian" depart="733.76">
        <walk edges="453761206#7 453761206#4 453761206#3 453761206#2 453761206#1 453761206#0 306780234#3 704509573#1 704509573#2 -39598629#0 39650114#3 -39650114#2 -39650114#1 -39650114#0 -448195881#2 -448195881#1 -39601146 39607956#0"/>
    </person>
    <person id="ped134" type="ped_pedestrian" depart="744.87">
        <walk edges="39598605#2 704509573#1 704509573#0 39598458#2 39598458#1 39598458#0 -1016388206#3"/>
    </person>
    <person id="ped136" type="ped_pedestrian" depart="755.99">
        <walk edges="39598629#3 -39598745#1 -39598745#0 -39598786#1 39598786#0 741767469#0"/>
    </person>
    <person id="ped137" type="ped_pedestrian" depart="761.55">
        <walk edges="-37345789 212710696#0 30912883#2 30912884 -30912884 30912883#1 30912883#0 212710692#1 212710692#0 191987944 -1016388206#5 1016388206#3 -39598458#0 39598458#1 39598458#2 704509573#0 306780234#3 453761206#0 453761206#1 453761206#2 39597960#1 -309613711#0 -309613711#1"/>
    </person>
    <person id="ped138" type="ped_pedestrian" depart="767.11">
        <walk edges="-309613710#0 482122892#5 309613711#0"/>
    </person>
    <person id="ped139" type="ped_pedestrian" depart="772.67">
        <walk edges="-453762944#3 1017147074#0 39587490#0"/>
    </person>
    <person id="ped140" type="ped_pedestrian" depart="778.23">
        <walk edges="39608490#1 39608490#0 1016388206#5 1016388206#3 1016388206#2 -39607956#7 -39607956#6 -39607956#5 263330574 30912891 -263330569 -263330686 741767469#2 -39598786#0"/>
    </person>
    <person id="ped141" type="ped_pedestrian" depart="783.78">
        <walk edges="39598232#0 -39598458#1 39598458#2 704509573#0 306780234#3 453761206#0 453761206#1 453761206#2 453761206#3 453761206#4 453761206#7 453761206#8 453761206#9 1014684310#0 1014684310#1 1014684310#2 -13715562 -453761207#0"/>
    </person>
    <person id="ped143" type="ped_pedestrian" depart="794.90">
        <walk edges="453762943#0 453762943#1 -30912941#2"/>
    </person>
    <person id="ped146" type="ped_pedestrian" depart="811.58">