<?xml version="1.0" encoding="UTF-8"?>

<!-- generated on 2023-06-20 21:56:33.403231 by randomTrips.py v1_16_0+0000-94ec4c6cd72
<configuration>
    <begin value="0"/>
    <end value="39600"/>
    <fringe-factor value="2"/>
    <fringe-start-attributes value="departSpeed=&quot;max&quot;"/>
    <insertion-density value="2.0"/>
    <max-distance value="1200.0"/>
    <net-file value="osm.netbaseline.xml.gz"/>
    <remove-loops value="True"/>
    <route-file value="osm.motorcycle.rou.xml"/>
    <trip-attributes value="departLane=&quot;best&quot;"/>
    <prefix value="motorcycle"/>
    <validate value="True"/>
    <vclass value="motorcycle"/>
    <vehicle-class value="motorcycle"/>
</configuration>
-->

<!-- generated on 2023-06-20 21:56:33 by Eclipse SUMO duarouter Version 1.16.0
<configuration xmlns:xsi="http://www.w3.org/2001/XMLSchema-instance" xsi:noNamespaceSchemaLocation="http://sumo.dlr.de/xsd/duarouterConfiguration.xsd">

    <input>
        <net-file value="osm.netbaseline.xml.gz"/>
        <route-files value="trips.trips.xml"/>
    </input>

    <output>
        <output-file value="osm.motorcycle.rou.xml"/>
        <alternatives-output value="NUL"/>
    </output>

    <processing>
        <remove-loops value="true"/>
    </processing>

    <time>
        <begin value="0"/>
        <end value="39600"/>
    </time>

    <report>
        <no-warnings value="true"/>
        <ignore-errors value="true"/>
        <no-step-log value="true"/>
    </report>

</configuration>
-->

<routes xmlns:xsi="http://www.w3.org/2001/XMLSchema-instance" xsi:noNamespaceSchemaLocation="http://sumo.dlr.de/xsd/routes_file.xsd">
    <vType id="motorcycle_motorcycle" vClass="motorcycle" carFollowModel="KraussPS" color="127,255,0"/>
    <vehicle id="motorcycle0" type="motorcycle_motorcycle" depart="0.00" departLane="best">
        <route edges="39607956#0 E2 39607956#5 39607956#6 39607956#7 1016388206#2 1016388206#3 1016388206#5 39608490#0 39608490#1 -1028339894"/>
    </vehicle>
    <vehicle id="motorcycle1" type="motorcycle_motorcycle" depart="34.78" departLane="best">
        <route edges="-448809958 39608973#1 1016388206#5 39608490#0 -914265951"/>
    </vehicle>
    <vehicle id="motorcycle2" type="motorcycle_motorcycle" depart="69.55" departLane="best">
        <route edges="39633790#2 453761206#1 453761206#2 453761206#3 453761206#4 453761206#7 453761206#8 453761206#9 1014684310#0 1014684310#1 1014684310#2 -13797599#1 -1016548268#1 -1016548268#0 -1028339894 -212710692#1 -212710692#0 -212710702 -448867798#3 -448867798#2 39609021#0 39609021#1 39609021#2 39609005#3 39609005#4 39609005#5 39609005#6 39609005#7 39609005#8 39609005#9"/>
    </vehicle>
    <vehicle id="motorcycle3" type="motorcycle_motorcycle" depart="104.33" departLane="best">
        <route edges="456405100#2 105637466#1 914265953#0 453761206#7 310786269 -39597607#2"/>
    </vehicle>
    <vehicle id="motorcycle4" type="motorcycle_motorcycle" depart="139.11" departLane="best">
        <route edges="30912883#1 30912883#2 28785456 212710702 212710692#0 212710692#1 1028339894 1016548268#0 1016548268#1 13797599#0 13715562"/>
    </vehicle>
    <vehicle id="motorcycle5" type="motorcycle_motorcycle" depart="173.88" departLane="best">
        <route edges="-868082260#0 868082261#1 868082261#2 448867798#2 448867798#3 212710702 212710692#0 212710692#1 1028339894 1016548268#0 1016548268#1 1083211596#0 1083211596#1 1083211596#2 105637466#1 914265953#0 453761206#7 310786269 -39597607#2 -39597607#1 -39597607#0 39597607#0 39597607#1 39597607#2 39597779#0"/>
    </vehicle>
    <vehicle id="motorcycle6" type="motorcycle_motorcycle" depart="208.66" departLane="best" departSpeed="max">
        <route edges="-1017147074#0 -453762944#3 -453762944#1 -453762944#0 -453762946#1 -453762946#0 -453762947 -448195881#3 -448195881#2 -448195881#1 -39601146 -39607956#0 -741767469#2 -741767469#0"/>
    </vehicle>
    <vehicle id="motorcycle7" type="motorcycle_motorcycle" depart="243.44" departLane="best">
        <route edges="-39607956#7 39598605#0 39598605#1"/>
    </vehicle>
    <vehicle id="motorcycle8" type="motorcycle_motorcycle" depart="278.22" departLane="best" departSpeed="max">
        <route edges="-868082260#1 -868082260#0 868082261#1 868082261#2 448867798#2 448867798#3 212710702 191987944 -1016388206#5 -1016388206#3 -1016388206#2 -39607956#7 39598605#0 39598760#2"/>
    </vehicle>
    <vehicle id="motorcycle9" type="motorcycle_motorcycle" depart="312.99" departLane="best">
        <route edges="453761206#2 453761206#3 453761206#4 453761206#7 453761206#8 453761206#9 1014684310#0 1014684310#1 1014684310#2 -13797599#1 -1016548268#1 -1016548268#0 -1028339894 -212710692#1 -212710692#0 -212710702 -448867798#3 -448867798#2 39609021#0 39609021#1 39609021#2 39609005#3 39609005#4 39609005#5 39609005#6 39609005#7 39609005#8 -456405092 -1016192005#1"/>
    </vehicle>
    <vehicle id="motorcycle10" type="motorcycle_motorcycle" depart="347.77" departLane="best">
        <route edges="453761206#1 178413106 -482122892#5 -482122892#4 -482122892#3 -482122892#2 -482122892#1 39598055 306780234#1 306780234#2 306780234#3 704509573#1 704509573#2 704509573#3 704509573#4 704509573#5 704509573#6 453762947 453762946#0 453762946#1 453762944#0 39631697"/>
    </vehicle>
    <vehicle id="motorcycle12" type="motorcycle_motorcycle" depart="417.32" departLane="best">
        <route edges="755512797#0 755512797#1 -13797599#3 -13797599#1 -1016548268#1 -1016548268#0 -1028339894 30912883#0"/>
    </vehicle>
    <vehicle id="motorcycle14" type="motorcycle_motorcycle" depart="486.88" departLane="best">
        <route edges="453761206#1 178413106 -482122892#5 -482122892#4 -482122892#3 -482122892#2 -482122892#1 39598055 306780234#1 306780234#2 306780234#3 704509573#1 704509573#2 704509573#3 704509573#4 39650163 39650114#2 39650114#3"/>
    </vehicle>
    <vehicle id="motorcycle15" type="motorcycle_motorcycle" depart="521.65" departLane="best">
        <route edges="39598055 306780234#1 306780234#2 306780234#3 39598589#0 39598589#1 -39607956#7 -39607956#6 -39607956#5 263330574 914265946"/>
    </vehicle>
    <vehicle id="motorcycle16" type="motorcycle_motorcycle" depart="556.43" departLane="best">
        <route edges="263330686 39607956#0 E2 39607956#5 39607956#6 39598605#0 39598605#1 39598605#2 704509573#2 39598629#0"/>
    </vehicle>
    <vehicle id="motorcycle17" type="motorcycle_motorcycle" depart="591.21" departLane="best">
        <route edges="453761207#0 453761207#1 755512797#0 755512797#1 -13797599#3 -13797599#1 1083211596#0 1083211596#1 1083211596#2 1083211597#1 704509573#0 704509573#1 704509573#2 704509573#3 704509573#4 704509573#5 704509573#6 -448195881#3 -448195881#2 -448195881#1 -39601146 E2 39607956#5"/>
    </vehicle>
    <vehicle id="motorcycle18" type="motorcycle_motorcycle" depart="625.99" departLane="best">
        <route edges="704509573#6 -448195881#3 -448195881#2 -448195881#1 39598745#0"/>
    </vehicle>
    <vehicle id="motorcycle19" type="motorcycle_motorcycle" depart="660.76" departLane="best">
        <route edges="39609021#0 39609021#1 39609021#2 39609005#3 39609005#4 39609005#5 39609005#6 39609005#7 39609005#8 39609005#9 39609005#10 -448809958 39608973#1 1016388206#5 39608490#0 39608490#1 -1028339894 30912883#0 30912883#1 30912883#2 212710696#0"/>
    </vehicle>
    <vehicle id="motorcycle20" type="motorcycle_motorcycle" depart="695.54" departLane="best">
        <route edges="-868082260#0 868082261#1 868082261#2 448867798#2 448867798#3 212710702 212710692#0 212710692#1 1028339894 1016548268#0 1016548268#1 1083211596#0 1083211596#1"/>
    </vehicle>
    <vehicle id="motorcycle22" type="motorcycle_motorcycle" depart="765.09" departLane="best">
        <route edges="39597607#1 39597607#2 39597779#0 39597779#1 39590262#0 39590262#1 1083211596#1 1083211596#2 1083211597#1 704509573#0 704509573#1 704509573#2 704509573#3 704509573#4 704509573#5 704509573#6 453762947 453762946#0 453762946#1 453762944#0 453762944#1 453762944#2 1017147074#0"/>
    </vehicle>
    <vehicle id="motorcycle23" type="motorcycle_motorcycle" depart="799.87" departLane="best">
        <route edges="39598880 39598786#1 -39601146 E2 39607956#5 39607956#6 39607956#7 1016388206#2 1016388206#3 1016388206#5 39608490#0 39608490#1 252525258"/>
    </vehicle>
    <vehicle id="motorcycle24" type="motorcycle_motorcycle" depart="834.65" departLane="best">
        <route edges="E2 39607956#5 39607956#6 39607956#7 1016388206#2 1016388206#3 1016388206#5 39608733 39608754 -448867798#3 -448867798#2 -868082261#2 -868082261#1 -868082261#0"/>
    </vehicle>
    <vehicle id="motorcycle25" type="motorcycle_motorcycle" depart="869.42" departLane="best">
        <route edges="1014684310#0 1014684310#1 1014684310#2 13715562 453761207#0 453761207#1 755512797#0"/>
    </vehicle>
    <vehicle id="motorcycle27" type="motorcycle_motorcycle" depart="938.98" departLane="best">
        <route edges="-453762944#3 -453762944#1 -453762944#0 -453762946#1 -453762946#0 -453762947 -448195881#3 39650114#0 39650114#1 39650114#2 39650114#3"/>
    </vehicle>
    <vehicle id="motorcycle28" type="motorcycle_motorcycle" depart="973.76" departLane="best">
        <route edges="-453762944#0 -453762946#1 -453762946#0 -453762947 -448195881#3 -448195881#2 -448195881#1 -39601146 -39607956#0 -263330686 263330570"/>
    </vehicle>
    <vehicle id="motorcycle29" type="motorcycle_motorcycle" depart="1008.53" departLane="best" departSpeed="max">
        <route edges="E0 741767469#0 741767469#2 39607956#0 E2 39607956#5 39607956#6 39607956#7 1016388206#2 1016388206#3 1016388206#5 39608733 39608754"/>
    </vehicle>
    <vehicle id="motorcycle30" type="motorcycle_motorcycle" depart="1043.31" departLane="best">
        <route edges="39598589#1 1016388206#2 1016388206#3 1016388206#5 39608733 39608754 -448867798#3 -448867798#2 39609021#0 39609021#1"/>
    </vehicle>
    <vehicle id="motorcycle31" type="motorcycle_motorcycle" depart="1078.09" departLane="best">
        <route edges="453762944#0 453762944#1 453762944#2 30912941#0 30912941#2 1014684309 453761206#0 453761206#1"/>
    </vehicle>
    <vehicle id="motorcycle32" type="motorcycle_motorcycle" depart="1112.86" departLane="best">
        <route edges="-868082260#0 868082261#1 868082261#2 448867798#2 448867798#3 212710702 212710692#0 212710692#1 1028339894 1016548268#0 1016548268#1 1083211596#0"/>
    </vehicle>
    <vehicle id="motorcycle33" type="motorcycle_motorcycle" depart="1147.64" departLane="best">
        <route edges="105637466#1 914265953#0 453761206#7 453761206#8 453761206#9 1014684310#0 1014684310#1 1014684310#2 -13797599#1 -1016548268#1 -1016548268#0 -1028339894 -212710692#1 -212710692#0 191987944 -1016388206#5"/>
    </vehicle>
    <vehicle id="motorcycle34" type="motorcycle_motorcycle" depart="1182.42" departLane="best">
        <route edges="741767469#0 741767469#2 39607956#0 E2 39607956#5 39607956#6 39607956#7 1016388206#2 1016388206#3 1016388206#5 39608733 39608754 -448867798#3 -448867798#2 -868082261#2 -868082261#1 -868082261#0 868082260#1"/>
    </vehicle>
    <vehicle id="motorcycle35" type="motorcycle_motorcycle" depart="1217.19" departLane="best">
        <route edges="456405094#1 39609005#0 39609005#3 39609005#4 39609005#5 39609005#6 39609005#7 39609005#8 39609005#9 39609005#10 -448809958 39608973#1 1016388206#5 39608490#0 39608490#1 1016548268#0 1016548268#1 13797599#0 13797599#2 13797599#4"/>
    </vehicle>
    <vehicle id="motorcycle36" type="motorcycle_motorcycle" depart="1251.97" departLane="best">
        <route edges="39608490#0 39608490#1 -1028339894 30912883#0 30912883#1 30912883#2 28785456"/>
    </vehicle>
    <vehicle id="motorcycle37" type="motorcycle_motorcycle" depart="1286.75" departLane="best">
        <route edges="482122892#5 39597960#1 453761206#3 453761206#4 453761206#7 453761206#8 453761206#9 1014684310#0 1014684310#1 1014684310#2 13715562 453761207#0 453761207#1 34772371#0"/>
    </vehicle>
    <vehicle id="motorcycle38" type="motorcycle_motorcycle" depart="1321.53" departLane="best">
        <route edges="1014684310#0 1014684310#1"/>
    </vehicle>
    <vehicle id="motorcycle39" type="motorcycle_motorcycle" depart="1356.30" departLane="best">
        <route edges="39598605#0 39598760#2 39598589#1 1016388206#2 1016388206#3"/>
    </vehicle>
    <vehicle id="motorcycle40" type="motorcycle_motorcycle" depart="1391.08" departLane="best">
        <route edges="39598629#4 -39607956#5 263330574 30912891 549758313"/>
    </vehicle>
    <vehicle id="motorcycle41" type="motorcycle_motorcycle" depart="1425.86" departLane="best">
        <route edges="306780234#3 39598589#0 39598589#1 1016388206#2 1016388206#3 1016388206#5 39608733 39608754 -448867798#3 -448867798#2 -868082261#2"/>
    </vehicle>
    <vehicle id="motorcycle42" type="motorcycle_motorcycle" depart="1460.63" departLane="best">
        <route edges="E3 1014684308.33 453762943#0 453762943#1 1014684309 453761206#0 453761206#1 453761206#2 453761206#3 453761206#4 453761206#7 310786269 -39597607#2 -39597607#1 -39597607#0 39597607#0 39597607#1 39597607#2 39597779#0 39597779#1"/>
    </vehicle>
    <vehicle id="motorcycle43" type="motorcycle_motorcycle" depart="1495.41" departLane="best" departSpeed="max">
        <route edges="-34772371#3 755512797#0 755512797#1 -13797599#3 -13797599#1 -1016548268#1 -1016548268#0 -1028339894 30912883#0 30912883#1 30912883#2 212710696#0"/>
    </vehicle>
    <vehicle id="motorcycle44" type="motorcycle_motorcycle" depart="1530.19" departLane="best">
        <route edges="-39598745#0 -39601146 E2 39607956#5 39607956#6 39607956#7 1016388206#2 1016388206#3 1016388206#5 39608490#0"/>
    </vehicle>
    <vehicle id="motorcycle45" type="motorcycle_motorcycle" depart="1564.96" departLane="best" departSpeed="max">
        <route edges="448867798#0 448867798#2 448867798#3 212710702 212710692#0 212710692#1 30912883#0"/>
    </vehicle>
    <vehicle id="motorcycle46" type="motorcycle_motorcycle" depart="1599.74" departLane="best">
        <route edges="-212710692#1 -212710692#0 191987944 -1016388206#5 -1016388206#3 -1016388206#2 -39607956#7 -39607956#6 -39607956#5 263330574 30912891 263330571"/>
    </vehicle>
    <vehicle id="motorcycle47" type="motorcycle_motorcycle" depart="1634.52" departLane="best">
        <route edges="E2 39607956#5 39607956#6 39607956#7 1016388206#2 39598458#0 39598458#1"/>
    </vehicle>
    <vehicle id="motorcycle48" type="motorcycle_motorcycle" depart="1669.29" departLane="best">
        <route edges="868082263 30912883#1 30912883#2 28785456 212710702 191987944 -1016388206#5 -1016388206#3 39598458#0 39598232#0 456405100#0"/>
    </vehicle>
    <vehicle id="motorcycle49" type="motorcycle_motorcycle" depart="1704.07" departLane="best">
        <route edges="-1016388206#3 -1016388206#2 -39607956#7 -39607956#6 -39607956#5 -E2 39601146 448195881#1 448195881#2 39650114#0"/>
    </vehicle>
    <vehicle id="motorcycle50" type="motorcycle_motorcycle" depart="1738.85" departLane="best">
        <route edges="39609005#3 39609005#4 39609005#5 39609005#6 39609005#7 39609005#8 39609005#9 39609005#10 -448809958 39608973#1 -1016388206#3 -1016388206#2 -39607956#7"/>
    </vehicle>
    <vehicle id="motorcycle51" type="motorcycle_motorcycle" depart="1773.63" departLane="best">
        <route edges="1014684310#0 1014684310#1 1014684310#2 -13797599#1 -1016548268#1 -1016548268#0 -1028339894 -212710692#1 -212710692#0 191987944 39608733 39608754"/>
    </vehicle>
    <vehicle id="motorcycle52" type="motorcycle_motorcycle" depart="1808.40" departLane="best">
        <route edges="-39598745#1 -39598745#0 -39601146 E2 263330574 30912891"/>
    </vehicle>
    <vehicle id="motorcycle53" type="motorcycle_motorcycle" depart="1843.18" departLane="best">
        <route edges="310786269 -39597607#2 -39597607#1 -39597607#0 39597607#0 39597607#1 39597607#2 39597779#0 39597779#1 1014684310#0 1014684310#1 1014684310#2 -13797599#1 -1016548268#1 -1016548268#0 -1028339894 -212710692#1 -212710692#0 -212710702 -448867798#3 -448867798#2 -868082261#2"/>
    </vehicle>
    <vehicle id="motorcycle54" type="motorcycle_motorcycle" depart="1877.96" departLane="best">
        <route edges="39609005#10 -448809958 39608973#1 -1016388206#3"/>
    </vehicle>
    <vehicle id="motorcycle55" type="motorcycle_motorcycle" depart="1912.73" departLane="best">
        <route edges="39588456 308771430 39587108#0 39587108#2 306780234#0 306780234#1 306780234#2 453761206#0 453761206#1 178413106 -482122892#5 -482122892#4 -482122892#3 -482122892#2 -482122892#1 -482122892#0"/>
    </vehicle>
    <vehicle id="motorcycle56" type="motorcycle_motorcycle" depart="1947.51" departLane="best">
        <route edges="482122892#4 482122892#5 39597960#1 453761206#3 453761206#4 453761206#7 453761206#8 453761206#9 39590262#0 39590262#1 1083211596#1 914265952 39633589 456405100#2"/>
    </vehicle>
    <vehicle id="motorcycle57" type="motorcycle_motorcycle" depart="1982.29" departLane="best">
        <route edges="1016548268#1 1083211596#0 1083211596#1 914265952 39609163#0 39609163#1 39608490#1 -1028339894 -212710692#1 -212710692#0 191987944 39608733 39608754"/>
    </vehicle>
    <vehicle id="motorcycle59" type="motorcycle_motorcycle" depart="2051.84" departLane="best">
        <route edges="39650163 39650114#2 39650114#3 39598629#1 39598760#1 39598760#2 39598589#1"/>
    </vehicle>
    <vehicle id="motorcycle60" type="motorcycle_motorcycle" depart="2086.62" departLane="best">
        <route edges="39607956#7 1016388206#2 39598458#0 39598458#1 39598458#2"/>
    </vehicle>
    <vehicle id="motorcycle61" type="motorcycle_motorcycle" depart="2121.40" departLane="best">
        <route edges="-1016192005#0 39608973#1 -1016388206#3 39598458#0 39598232#0 456405100#0 456405100#1 456405100#2 105637466#1 914265953#0 206544631"/>
    </vehicle>
    <vehicle id="motorcycle62" type="motorcycle_motorcycle" depart="2156.17" departLane="best">
        <route edges="-1016548268#0 -1028339894 -212710692#1 -212710692#0 191987944 -1016388206#5 -1016388206#3 -1016388206#2 -39607956#7 -39607956#6 -39607956#5 -E2 -39607956#0 -741767469#2 -741767469#0"/>
    </vehicle>
    <vehicle id="motorcycle63" type="motorcycle_motorcycle" depart="2190.95" departLane="best">
        <route edges="456405094#1 39609005#0 39609005#3 39609005#4 39609005#5 39609005#6 39609005#7 39609005#8 39609005#9 39609005#10 -448809958 39608973#1 -1016388206#3 -1016388206#2 -39607956#7 -39607956#6 -39607956#5 -E2 39601146 448195881#1 448195881#2 448195881#3 453762947"/>
    </vehicle>
    <vehicle id="motorcycle64" type="motorcycle_motorcycle" depart="2225.73" departLane="best">
        <route edges="1017147074#0 39587490#0 -308771430"/>
    </vehicle>
    <vehicle id="motorcycle65" type="motorcycle_motorcycle" depart="2260.50" departLane="best">
        <route edges="456405094#1 39609005#0 39609005#3 39609005#4 39609005#5 39609005#6 39609005#7 39609005#8 39609005#9 39609005#10 -448809958 39608973#1 1016388206#5 39608733 39608754 -448867798#3 -448867798#2 -868082261#2 -868082261#1 -868082261#0 868082260#1"/>
    </vehicle>
    <vehicle id="motorcycle67" type="motorcycle_motorcycle" depart="2330.06" departLane="best" departSpeed="max">
        <route edges="-212710696#1 -212710696#0 28785456 212710702 191987944 39608733 448809960"/>
    </vehicle>
    <vehicle id="motorcycle68" type="motorcycle_motorcycle" depart="2364.83" departLane="best">
        <route edges="39650208 704509573#4 704509573#5 704509573#6 -448195881#3 -448195881#2 -448195881#1 -39601146 E2 39607956#5 39607956#6 39607956#7 1016388206#2 1016388206#3 39608992#1 1016192005#0"/>
    </vehicle>
    <vehicle id="motorcycle69" type="motorcycle_motorcycle" depart="2399.61" departLane="best" departSpeed="max">
        <route edges="39586894#0 39586894#1 39588456 308771430 39587108#0 39587108#2 306780234#0 306780234#1 306780234#2 306780234#3 704509573#1 704509573#2"/>
    </vehicle>
    <vehicle id="motorcycle70" type="motorcycle_motorcycle" depart="2434.39" departLane="best">
        <route edges="1014684310#0 1014684310#1 310746310#0 310746311 39590262#1 1083211596#1 1083211596#2 105637466#1 39633790#0 39633790#1 39633790#2 453761206#1 178413106 -482122892#5 -482122892#4 -482122892#3 -482122892#2 -482122892#1"/>
    </vehicle>
    <vehicle id="motorcycle71" type="motorcycle_motorcycle" depart="2469.17" departLane="best">
        <route edges="30912883#2 28785456 -448867798#3 -448867798#2 -868082261#2 -868082261#1 -868082261#0"/>
    </vehicle>
    <vehicle id="motorcycle72" type="motorcycle_motorcycle" depart="2503.94" departLane="best">
        <route edges="39598055 306780234#1 306780234#2 306780234#3 704509573#1 704509573#2 704509573#3 704509573#4 39650163 39650114#2 39650114#3"/>
    </vehicle>
    <vehicle id="motorcycle73" type="motorcycle_motorcycle" depart="2538.72" departLane="best">
        <route edges="482122892#3 482122892#4 482122892#5 39597960#1 453761206#3 453761206#4 453761206#7 453761206#8 453761206#9 1014684310#0 1014684310#1 1014684310#2 13797599#2 13797599#4"/>
    </vehicle>
    <vehicle id="motorcycle74" type="motorcycle_motorcycle" depart="2573.50" departLane="best">
        <route edges="E2 39607956#5 39607956#6 39607956#7 1016388206#2 1016388206#3 39608992#1 448809958 456405094#0 456405094#1 39609005#0"/>
    </vehicle>
    <vehicle id="motorcycle75" type="motorcycle_motorcycle" depart="2608.27" departLane="best">
        <route edges="30912941#0 30912941#2 1014684309 453761206#0 453761206#1 178413106 -482122892#5 -482122892#4 -482122892#3 -482122892#2 -482122892#1 39598055"/>
    </vehicle>
    <vehicle id="motorcycle76" type="motorcycle_motorcycle" depart="2643.05" departLane="best">
        <route edges="39607956#5 39607956#6 39607956#7 1016388206#2 1016388206#3 1016388206#5 39608490#0 -914265951"/>
    </vehicle>
    <vehicle id="motorcycle77" type="motorcycle_motorcycle" depart="2677.83" departLane="best">
        <route edges="-13797599#3 -13797599#1 1083211596#0 1083211596#1 1083211596#2 1083211597#1 704509573#0 704509573#1 704509573#2 39598629#0 39598629#1 39598760#1"/>
    </vehicle>
    <vehicle id="motorcycle78" type="motorcycle_motorcycle" depart="2712.60" departLane="best">
        <route edges="-868082260#0 868082261#1 868082261#2 448867798#2 448867798#3 212710702 191987944 -1016388206#5 -1016388206#3 -1016388206#2 448568807 -914265946"/>
    </vehicle>
    <vehicle id="motorcycle79" type="motorcycle_motorcycle" depart="2747.38" departLane="best" departSpeed="max">
        <route edges="-212710696#1 -212710696#0 28785456 212710702 191987944 39608490#0 39608490#1"/>
    </vehicle>
    <vehicle id="motorcycle80" type="motorcycle_motorcycle" depart="2782.16" departLane="best">
        <route edges="-868082260#0 868082261#1 868082261#2 448867798#2 448867798#3 212710702 212710692#0 212710692#1 1028339894 1016548268#0 1016548268#1 1083211596#0 1083211596#1 1083211596#2 1083211597#1 704509573#0"/>
    </vehicle>
    <vehicle id="motorcycle81" type="motorcycle_motorcycle" depart="2816.94" departLane="best">
        <route edges="453762947 453762946#0 453762946#1 453762944#0 453762944#1 453762944#2 1017147074#0 39587490#0 -308771430 -39588456"/>
    </vehicle>
    <vehicle id="motorcycle82" type="motorcycle_motorcycle" depart="2851.71" departLane="best">
        <route edges="-914265946 30912891 263330569 263330686 39607956#0 E2 39607956#5 39607956#6 39607956#7 1016388206#2 1016388206#3 39608992#1 448809958 456405094#0 456405094#1 39609005#0 39609005#3 39609005#4 39609005#5 39609005#6"/>
    </vehicle>
    <vehicle id="motorcycle83" type="motorcycle_motorcycle" depart="2886.49" departLane="best">
        <route edges="741767469#2 39607956#0 E2 39607956#5 39607956#6 39607956#7 1016388206#2 1016388206#3 1016388206#5 39608733 39608754 -448867798#3 -448867798#2 -448867798#0"/>
    </vehicle>
    <vehicle id="motorcycle84" type="motorcycle_motorcycle" depart="2921.27" departLane="best">
        <route edges="704509573#3 704509573#4 704509573#5 39598714#0"/>
    </vehicle>
    <vehicle id="motorcycle85" type="motorcycle_motorcycle" depart="2956.04" departLane="best" departSpeed="max">
        <route edges="39586894#0 39586894#1 39588456 308771430 39587108#0 39587108#2 306780234#0 306780234#1 306780234#2 453761206#0 453761206#1 453761206#2 453761206#3 453761206#4"/>
    </vehicle>
    <vehicle id="motorcycle86" type="motorcycle_motorcycle" depart="2990.82" departLane="best">
        <route edges="453761206#1 178413106 -482122892#5 -482122892#4 -482122892#3"/>
    </vehicle>
    <vehicle id="motorcycle88" type="motorcycle_motorcycle" depart="3060.37" departLane="best">
        <route edges="30912883#2 28785456 212710702 212710692#0 212710692#1 1028339894 1016548268#0 1016548268#1 1083211596#0 1083211596#1 1083211596#2 1083211597#1 704509573#0 704509573#1 704509573#2 704509573#3 704509573#4 704509573#5 704509573#6 453762947 453762946#0 453762946#1 453762944#0 453762944#1 453762944#2 1017147074#0 39587490#0 -308771430 -39588456 39586894#2"/>
    </vehicle>
    <vehicle id="motorcycle89" type="motorcycle_motorcycle" depart="3095.15" departLane="best">
        <route edges="39633790#0 39633790#1 39633790#2 453761206#1 453761206#2 453761206#3 453761206#4 453761206#7 453761206#8 453761206#9 1014684310#0 1014684310#1 1014684310#2 -13797599#1 -1016548268#1 -1016548268#0 -1028339894 -212710692#1 -212710692#0 -212710702 -448867798#3 -448867798#2 39609021#0 39609021#1 39609021#2 39609005#3 39609005#4 39609005#5 39609005#6 39609005#7 39609005#8"/>
    </vehicle>
    <vehicle id="motorcycle90" type="motorcycle_motorcycle" depart="3129.93" departLane="best">
        <route edges="914265953#0 453761206#7 453761206#8 453761206#9 39590262#0 39590262#1 1083211596#1 1083211596#2 1083211597#1 704509573#0 704509573#1 704509573#2 704509573#3 704509573#4 704509573#5 704509573#6 -448195881#3 -448195881#2 -448195881#1 -39601146 -39607956#0"/>
    </vehicle>
    <vehicle id="motorcycle91" type="motorcycle_motorcycle" depart="3164.70" departLane="best" departSpeed="max">
        <route edges="306780458#0 755512797#0 755512797#1 -13797599#3 -13797599#1 -1016548268#1 -1016548268#0 -1028339894 30912883#0 30912883#1 30912883#2 212710696#0"/>
    </vehicle>
    <vehicle id="motorcycle92" type="motorcycle_motorcycle" depart="3199.48" departLane="best">
        <route edges="453762947 453762946#0 453762946#1 453762943#0 453762943#1 1014684309 453761206#0 453761206#1 453761206#2 453761206#3 453761206#4 453761206#7 453761206#8 453761206#9 1014684310#0 1014684310#1 1014684310#2"/>
    </vehicle>
    <vehicle id="motorcycle93" type="motorcycle_motorcycle" depart="3234.26" departLane="best" departSpeed="max">
        <route edges="-456405097 39609005#7 39609005#8 39609005#9 39609005#10 -448809958 39608973#1 -1016388206#3 39598458#0 39598232#0 456405100#0 456405100#1 456405100#2 105637466#1 914265953#0 453761206#7 453761206#8 453761206#9 1014684310#0 1014684310#1"/>
    </vehicle>
    <vehicle id="motorcycle94" type="motorcycle_motorcycle" depart="3269.04" departLane="best">
        <route edges="30912883#1 30912883#2 28785456 212710702 212710692#0 212710692#1 1028339894 1016548268#0 1016548268#1 1083211596#0 1083211596#1 1083211596#2 1083211597#1 704509573#0 704509573#1 704509573#2 704509573#3 704509573#4 704509573#5 704509573#6 453762947 453762946#0 453762946#1 453762944#0 453762944#1 453762944#2 1017147074#0"/>
    </vehicle>
    <vehicle id="motorcycle96" type="motorcycle_motorcycle" depart="3338.59" departLane="best">
        <route edges="30912941#2 1014684309 306780234#3 39598589#0 39598589#1 1016388206#2 39598458#0 39598232#0 456405100#0"/>
    </vehicle>
    <vehicle id="motorcycle97" type="motorcycle_motorcycle" depart="3373.37" departLane="best">
        <route edges="39598458#2 704509573#0 39598589#0 39598589#1 1016388206#2 1016388206#3 1016388206#5 39608490#0 39608490#1 -1028339894 -212710692#1 -212710692#0 -212710702"/>
    </vehicle>
    <vehicle id="motorcycle98" type="motorcycle_motorcycle" depart="3408.14" departLane="best">
        <route edges="E3 1014684308.33 -453762946#1 -453762946#0 -453762947 -448195881#3 -448195881#2 -448195881#1 -39601146 E2 39607956#5 39607956#6 39607956#7 1016388206#2 1016388206#3 39608992#1 1016192005#0 1016192005#1 456405091"/>
    </vehicle>
    <vehicle id="motorcycle99" type="motorcycle_motorcycle" depart="3442.92" departLane="best">
        <route edges="868082261#2 448867798#2 448867798#3 212710702 212710692#0 212710692#1 1028339894 1016548268#0 1016548268#1 1083211596#0 1083211596#1 1083211596#2 1083211597#1 704509573#0 704509573#1 704509573#2 704509573#3 704509573#4 704509573#5 704509573#6"/>
    </vehicle>
    <vehicle id="motorcycle100" type="motorcycle_motorcycle" depart="3477.70" departLane="best">
        <route edges="453762944#1 453762944#2 30912941#0 30912941#2 1014684309 306780234#3 704509573#1 704509573#2 704509573#3 704509573#4 704509573#5 704509573#6 910431582 E3 1014684308.33 -453762946#1"/>
    </vehicle>
    <vehicle id="motorcycle101" type="motorcycle_motorcycle" depart="3512.47" departLane="best">
        <route edges="39587067 39587108#0 39587108#2 306780234#0 306780234#1 306780234#2 453761206#0 453761206#1 453761206#2 453761206#3 453761206#4 453761206#7 453761206#8 453761206#9 1014684310#0 1014684310#1 1014684310#2 -13797599#1 -1016548268#1 -1016548268#0 -1028339894 -212710692#1 -212710692#0 -212710702 -448867798#3 -448867798#2 -868082261#2 -868082261#1"/>
    </vehicle>
    <vehicle id="motorcycle102" type="motorcycle_motorcycle" depart="3547.25" departLane="best">