<?xml version="1.0" encoding="UTF-8"?>

<!-- generated on 2023-06-20 21:56:42.094675 by randomTrips.py v1_16_0+0000-94ec4c6cd72
<configuration>
    <begin value="0"/>
    <end value="39600"/>
    <fringe-factor value="max"/>
    <fringe-start-attributes value="departSpeed=&quot;max&quot;"/>
    <insertion-density value="2.0"/>
    <min-distance.fringe value="10.0"/>
    <min-distance value="600.0"/>
    <net-file value="osm.netbaseline.xml.gz"/>
    <remove-loops value="True"/>
    <route-file value="osm.truck.rou.xml"/>
    <trip-attributes value="departLane=&quot;best&quot;"/>
    <prefix value="truck"/>
    <validate value="True"/>
    <vclass value="truck"/>
    <vehicle-class value="truck"/>
</configuration>
-->

<!-- generated on 2023-06-20 21:56:41 by Eclipse SUMO duarouter Version 1.16.0
<configuration xmlns:xsi="http://www.w3.org/2001/XMLSchema-instance" xsi:noNamespaceSchemaLocation="http://sumo.dlr.de/xsd/duarouterConfiguration.xsd">

    <input>
        <net-file value="osm.netbaseline.xml.gz"/>
        <route-files value="trips.trips.xml"/>
    </input>

    <output>
        <output-file value="osm.truck.rou.xml"/>
        <alternatives-output value="NUL"/>
    </output>

    <processing>
        <remove-loops value="true"/>
    </processing>

    <time>
        <begin value="0"/>
        <end value="39600"/>
    </time>

    <report>
        <no-warnings value="true"/>
        <ignore-errors value="true"/>
        <no-step-log value="true"/>
    </report>

</configuration>
-->

<routes xmlns:xsi="http://www.w3.org/2001/XMLSchema-instance" xsi:noNamespaceSchemaLocation="http://sumo.dlr.de/xsd/routes_file.xsd">
    <vType id="truck_truck" vClass="truck" carFollowModel="KraussPS" color="black"/>
    <vehicle id="truck0" type="truck_truck" depart="0.00" departLane="best" departSpeed="max">
        <route edges="-456405097 39609005#7 39609005#8 39609005#9 39609005#10 -448809958 39608973#1 1016388206#5 39608490#0 39608490#1 1016548268#0 1016548268#1 13797599#0 13797599#2 13797599#4"/>
    </vehicle>
    <vehicle id="truck1" type="truck_truck" depart="34.78" departLane="best" departSpeed="max">
        <route edges="39586894#0 39586894#1 39588456 308771430 39587108#0 39587108#2 306780234#0 306780234#1 306780234#2 306780234#3 39598589#0 39598589#1 1016388206#2 1016388206#3 39608992#1 448809958 456405094#0 456405094#1 39609005#0 39609005#3 39609005#4 39609005#5 39609005#6 456405097"/>
    </vehicle>
    <vehicle id="truck2" type="truck_truck" depart="69.55" departLane="best" departSpeed="max">
        <route edges="448867798#0 448867798#2 448867798#3 212710702 212710692#0 212710692#1 1028339894 1016548268#0 1016548268#1 1083211596#0 1083211596#1 1083211596#2 105637466#1 914265953#0 453761206#7 310786269 -39597607#2 -39597607#1 -39597607#0"/>
    </vehicle>
    <vehicle id="truck3" type="truck_truck" depart="104.33" departLane="best" departSpeed="max">
        <route edges="1016548269 -1016548268#1 -1016548268#0 -1028339894 30912883#0 30912883#1 30912883#2 212710696#0 -37345789"/>
    </vehicle>
    <vehicle id="truck4" type="truck_truck" depart="139.11" departLane="best" departSpeed="max">
        <route edges="-34772371#3 755512797#0 755512797#1 -13797599#3 -13797599#1 -1016548268#1 -1016548268#0 -1028339894 -212710692#1 -212710692#0 191987944 -1016388206#5 -1016388206#3 -1016388206#2 -39607956#7 -39607956#6 -39607956#5 -E2 -39607956#0 -263330686 263330570"/>
    </vehicle>
    <vehicle id="truck5" type="truck_truck" depart="173.88" departLane="best" departSpeed="max">
        <route edges="37345789 -212710696#0 28785456 212710702 191987944 -1016388206#5 -1016388206#3 -1016388206#2 -39607956#7 -39607956#6 -39607956#5 -E2 -39607956#0 -263330686 263330570"/>
    </vehicle>
    <vehicle id="truck6" type="truck_truck" depart="208.66" departLane="best" departSpeed="max">
        <route edges="-34772371#3 755512797#0 755512797#1 -13797599#3 -13797599#1 -1016548268#1 -1016548268#0 -1028339894 -212710692#1 -212710692#0 191987944 -1016388206#5 -1016388206#3 -1016388206#2 -39607956#7 -39607956#6 -39607956#5 263330574 30912891 263330571"/>
    </vehicle>
    <vehicle id="truck7" type="truck_truck" depart="243.44" departLane="best" departSpeed="max">
        <route edges="39598863#0 39598863#1 -448195881#1 -39601146 E2 39607956#5 39607956#6 39607956#7 1016388206#2 1016388206#3 1016388206#5 39608490#0 39608490#1 -1028339894 30912883#0 30912883#1 30912883#2 212710696#0 -37345789"/>
    </vehicle>
    <vehicle id="truck8" type="truck_truck" depart="278.22" departLane="best" departSpeed="max">
        <route edges="39598863#0 39598863#1 -448195881#1 -39601146 E2 39607956#5 39607956#6 39607956#7 1016388206#2 1016388206#3 39608992#1 448809958 456405094#0 456405094#1 39609005#0 39609005#3 39609005#4 39609005#5 39609005#6 456405097"/>
    </vehicle>
    <vehicle id="truck9" type="truck_truck" depart="312.99" departLane="best" departSpeed="max">
        <route edges="E0 741767469#0 741767469#2 39607956#0 E2 39607956#5 39607956#6 39607956#7 1016388206#2 1016388206#3 1016388206#5 39608490#0 39608490#1 -1028339894 30912883#0 30912883#1 30912883#2 212710696#0 212710696#1"/>
    </vehicle>
    <vehicle id="truck10" type="truck_truck" depart="347.77" departLane="best" departSpeed="max">
        <route edges="306780458#0 755512797#0 755512797#1 -13797599#3 -13797599#1 -1016548268#1 -1016548268#0 -1028339894 -212710692#1 -212710692#0 191987944 -1016388206#5 -1016388206#3 -1016388206#2 -39607956#7 -39607956#6 -39607956#5 -E2 -39607956#0 -741767469#2 -741767469#0 E1"/>
    </vehicle>
    <vehicle id="truck11" type="truck_truck" depart="382.55" departLane="best" departSpeed="max">
        <route edges="39598863#0 39598863#1 448195881#2 448195881#3 453762947 453762946#0 453762946#1 453762943#0 453762943#1 1014684309 453761206#0 453761206#1 453761206#2 453761206#3 453761206#4 453761206#7 453761206#8 453761206#9 1014684310#0 1014684310#1 1014684310#2 13715562 453761207#0 453761207#1 34772371#0"/>
    </vehicle>
    <vehicle id="truck12" type="truck_truck" depart="417.32" departLane="best" departSpeed="max">
        <route edges="448867798#0 448867798#2 448867798#3 212710702 191987944 -1016388206#5 -1016388206#3 -1016388206#2 -39607956#7 -39607956#6 -39607956#5 263330574 30912891 263330571"/>
    </vehicle>
    <vehicle id="truck13" type="truck_truck" depart="452.10" departLane="best" departSpeed="max">
        <route edges="39586894#0 39586894#1 39588456 308771430 39587108#0 39587108#2 306780234#0 306780234#1 306780234#2 453761206#0 453761206#1 453761206#2 453761206#3 453761206#4 453761206#7 453761206#8 453761206#9 1014684310#0 1014684310#1 1014684310#2 -13797599#1 -1016548268#1 -1016548268#0 -1028339894 30912883#0 30912883#1 30912883#2 212710696#0 -37345789"/>
    </vehicle>
    <vehicle id="truck14" type="truck_truck" depart="486.88" departLane="best" departSpeed="max">
        <route edges="1014684308 1014684308.33 453762943#0 453762943#1 1014684309 453761206#0 453761206#1 178413106 -482122892#5 -482122892#4 -482122892#3 -482122892#2 -482122892#1 -482122892#0"/>
    </vehicle>
    <vehicle id="truck15" type="truck_truck" depart="521.65" departLane="best" departSpeed="max">
        <route edges="37345789 -212710696#0 28785456 212710702 191987944 -1016388206#5 -1016388206#3 -1016388206#2 -39607956#7 -39607956#6 -39607956#5 263330574 30912891 263330571"/>
    </vehicle>
    <vehicle id="truck16" type="truck_truck" depart="556.43" departLane="best" departSpeed="max">
        <route edges="-212710696#1 -212710696#0 28785456 212710702 191987944 -1016388206#5 -1016388206#3 -1016388206#2 -39607956#7 -39607956#6 -39607956#5 263330574 30912891 549758313"/>
    </vehicle>
    <vehicle id="truck17" type="truck_truck" depart="591.21" departLane="best" departSpeed="max">
        <route edges="E0 741767469#0 741767469#2 39607956#0 E2 39607956#5 39607956#6 39607956#7 1016388206#2 1016388206#3 1016388206#5 39608490#0 39608490#1 1016548268#0 1016548268#1 13797599#0 13715562 453761207#0 453761207#1 34772371#0"/>
    </vehicle>
    <vehicle id="truck18" type="truck_truck" depart="625.99" departLane="best" departSpeed="max">
        <route edges="-34772371#3 755512797#0 755512797#1 -13797599#3 -13797599#1 -1016548268#1 -1016548268#0 -1028339894 30912883#0 30912883#1 30912883#2 212710696#0 -37345789"/>
    </vehicle>
    <vehicle id="truck19" type="truck_truck" depart="660.76" departLane="best" departSpeed="max">
        <route edges="-868082260#1 -868082260#0 868082261#1 868082261#2 448867798#2 448867798#3 212710702 212710692#0 212710692#1 1028339894 1016548268#0 1016548268#1 13797599#0 13797599#2 13797599#4"/>
    </vehicle>
    <vehicle id="truck20" type="truck_truck" depart="695.54" departLane="best" departSpeed="max">
        <route edges="-34772371#3 755512797#0 755512797#1 -13797599#3 -13797599#1 -1016548268#1 -1016548268#0 -1028339894 -212710692#1 -212710692#0 191987944 -1016388206#5 -1016388206#3 -1016388206#2 -39607956#7 -39607956#6 -39607956#5 263330574 914265946"/>
    </vehicle>
    <vehicle id="truck21" type="truck_truck" depart="730.32" departLane="best" departSpeed="max">
        <route edges="448867798#0 448867798#2 448867798#3 212710702 212710692#0 212710692#1 1028339894 1016548268#0 1016548268#1 1083211596#0 1083211596#1 1083211596#2 105637466#1 914265953#0 206544631"/>
    </vehicle>
    <vehicle id="truck22" type="truck_truck" depart="765.09" departLane="best" departSpeed="max">
        <route edges="37345793 28785456 212710702 212710692#0 212710692#1 1028339894 1016548268#0 1016548268#1 13797599#0 13715562 453761207#0 453761207#1 228569801"/>
    </vehicle>
    <vehicle id="truck23" type="truck_truck" depart="799.87" departLane="best" departSpeed="max">
        <route edges="482122892#0 482122892#1 482122892#2 482122892#3 482122892#4 482122892#5 39597960#1 453761206#3 453761206#4 453761206#7 453761206#8 453761206#9 1014684310#0 1014684310#1 1014684310#2 -13797599#1 -1016548268#1 -1016548268#0 252525258"/>
    </vehicle>
    <vehicle id="truck24" type="truck_truck" depart="834.65" departLane="best" departSpeed="max">
        <route edges="-456405097 39609005#7 39609005#8 39609005#9 39609005#10 -448809958 39608973#1 1016388206#5 39608490#0 39608490#1 1016548268#0 1016548268#1 13797599#0 13797599#2 13797599#4"/>
    </vehicle>
    <vehicle id="truck25" type="truck_truck" depart="869.42" departLane="best" departSpeed="max">
        <route edges="30912884 30912883#2 28785456 212710702 212710692#0 212710692#1 1028339894 1016548268#0 1016548268#1 13797599#0 13797599#2 13797599#4"/>
    </vehicle>
    <vehicle id="truck26" type="truck_truck" depart="904.20" departLane="best" departSpeed="max">
        <route edges="30912884 30912883#2 28785456 212710702 191987944 -1016388206#5 -1016388206#3 -1016388206#2 -39607956#7 -39607956#6 -39607956#5 263330574 914265946"/>
    </vehicle>
    <vehicle id="truck27" type="truck_truck" depart="938.98" departLane="best" departSpeed="max">
        <route edges="1014684308 1014684308.33 453762943#0 453762943#1 1014684309 453761206#0 453761206#1 178413106 -482122892#5 -482122892#4 -482122892#3 -482122892#2 -482122892#1 -482122892#0"/>
    </vehicle>
    <vehicle id="truck28" type="truck_truck" depart="973.76" departLane="best" departSpeed="max">
        <route edges="-13797599#4 -13797599#3 -13797599#1 -1016548268#1 -1016548268#0 -1028339894 30912883#0 30912883#1 30912883#2 212710696#0 -37345789"/>
    </vehicle>
    <vehicle id="truck29" type="truck_truck" depart="1008.53" departLane="best" departSpeed="max">
        <route edges="-13797599#4 -13797599#3 -13797599#1 -1016548268#1 -1016548268#0 -1028339894 30912883#0 30912883#1 30912883#2 212710696#0 212710696#1"/>
    </vehicle>
    <vehicle id="truck30" type="truck_truck" depart="1043.31" departLane="best" departSpeed="max">
        <route edges="-1017147074#0 -453762944#3 -453762944#1 -453762944#0 -453762946#1 -453762946#0 -453762947 -448195881#3 -448195881#2 -448195881#1 -39601146 E2 39607956#5 39607956#6 39607956#7 1016388206#2 1016388206#3 39608992#1 448809958 456405094#0 456405094#1 39609005#0 39609005#3 39609005#4 39609005#5 39609005#6 456405097"/>
    </vehicle>
    <vehicle id="truck31" type="truck_truck" depart="1078.09" departLane="best" departSpeed="max">
        <route edges="37345793 28785456 212710702 191987944 -1016388206#5 -1016388206#3 -1016388206#2 -39607956#7 -39607956#6 -39607956#5 -E2 -39607956#0 -263330686 263330570"/>
    </vehicle>
    <vehicle id="truck32" type="truck_truck" depart="1112.86" departLane="best" departSpeed="max">
        <route edges="-456405097 39609005#7 39609005#8 39609005#9 39609005#10 -448809958 39608973#1 1016388206#5 39608490#0 39608490#1 1016548268#0 1016548268#1 13797599#0 13715562 453761207#0 453761207#1 34772371#0"/>
    </vehicle>
    <vehicle id="truck33" type="truck_truck" depart="1147.64" departLane="best" departSpeed="max">
        <route edges="448867798#0 448867798#2 448867798#3 212710702 212710692#0 212710692#1 1028339894 1016548268#0 1016548268#1 13797599#0 13797599#2 13797599#4"/>
    </vehicle>
    <vehicle id="truck34" type="truck_truck" depart="1182.42" departLane="best" departSpeed="max">
        <route edges="306780458#0 755512797#0 755512797#1 -13797599#3 -13797599#1 1083211596#0 1083211596#1 1083211596#2 105637466#1 39633790#0 39633790#1 39633790#2 453761206#1 178413106 -482122892#5 -482122892#4 -482122892#3 -482122892#2 -482122892#1 -482122892#0"/>
    </vehicle>
    <vehicle id="truck35" type="truck_truck" depart="1217.19" departLane="best" departSpeed="max">
        <route edges="482122892#0 39598055 306780234#1 306780234#2 306780234#3 704509573#1 704509573#2 704509573#3 704509573#4 704509573#5 704509573#6 910431582 910431582.350"/>
    </vehicle>
    <vehicle id="truck36" type="truck_truck" depart="1251.97" departLane="best" departSpeed="max">
        <route edges="-456405097 39609005#7 39609005#8 39609005#9 39609005#10 -448809958 39608973#1 1016388206#5 39608490#0 39608490#1 1016548268#0 1016548268#1 13797599#0 13715562 453761207#0 453761207#1 34772371#0"/>
    </vehicle>
    <vehicle id="truck37" type="truck_truck" depart="1286.75" departLane="best" departSpeed="max">
        <route edges="39597607#0 39597607#1 39597607#2 39597779#0 39597779#1 39590262#0 39590262#1 1083211596#1 1083211596#2 1083211597#1 704509573#0 704509573#1 704509573#2 704509573#3 704509573#4 704509573#5 704509573#6 -448195881#3 -448195881#2 -448195881#1 -39601146 -39607956#0 -263330686 263330570"/>
    </vehicle>
    <vehicle id="truck38" type="truck_truck" depart="1321.53" departLane="best" departSpeed="max">
        <route edges="39597607#0 39597607#1 39597607#2 39597779#0 39597779#1 39590262#0 39590262#1 1083211596#1 1083211596#2 1083211597#1 704509573#0 704509573#1 704509573#2 704509573#3 704509573#4 704509573#5 704509573#6 -448195881#3 -448195881#2 -448195881#1 -39601146 -39607956#0 -263330686 263330570"/>
    </vehicle>
    <vehicle id="truck39" type="truck_truck" depart="1356.30" departLane="best" departSpeed="max">
        <route edges="-1017147074#0 -453762944#3 -453762944#1 -453762944#0 -453762946#1 -453762946#0 -453762947 -448195881#3 -448195881#2 -448195881#1 -39601146 E2 263330574 914265946"/>
    </vehicle>
    <vehicle id="truck40" type="truck_truck" depart="1391.08" departLane="best" departSpeed="max">
        <route edges="-868082260#1 -868082260#0 868082261#1 868082261#2 448867798#2 448867798#3 212710702 212710692#0 212710692#1 1028339894 1016548268#0 1016548268#1 1083211596#0 1083211596#1 1083211596#2 105637466#1 914265953#0 453761206#7 310786269 -39597607#2 -39597607#1 -39597607#0"/>
    </vehicle>
    <vehicle id="truck41" type="truck_truck" depart="1425.86" departLane="best" departSpeed="max">
        <route edges="448867798#0 448867798#2 448867798#3 212710702 191987944 -1016388206#5 -1016388206#3 -1016388206#2 -39607956#7 -39607956#6 -39607956#5 -E2 -39607956#0 -741767469#2 -741767469#0 E1"/>
    </vehicle>
    <vehicle id="truck42" type="truck_truck" depart="1460.63" departLane="best" departSpeed="max">
        <route edges="-13797599#4 -13797599#3 -13797599#1 -1016548268#1 -1016548268#0 252525258"/>
    </vehicle>
    <vehicle id="truck43" type="truck_truck" depart="1495.41" departLane="best" departSpeed="max">
        <route edges="-13797599#4 -13797599#3 -13797599#1 -1016548268#1 -1016548268#0 -1028339894 -212710692#1 -212710692#0 191987944 -1016388206#5 -1016388206#3 -1016388206#2 -39607956#7 -39607956#6 -39607956#5 263330574 30912891 549758313"/>
    </vehicle>
    <vehicle id="truck44" type="truck_truck" depart="1530.19" departLane="best" departSpeed="max">
        <route edges="39597607#0 39597607#1 39597607#2 39597779#0 39597779#1 1014684310#0 1014684310#1 1014684310#2 -13797599#1 -1016548268#1 -1016548268#0 -1028339894 -212710692#1 -212710692#0 -212710702 -448867798#3 -448867798#2 -448867798#0"/>
    </vehicle>
    <vehicle id="truck45" type="truck_truck" depart="1564.96" departLane="best" departSpeed="max">
        <route edges="-456405097 39609005#7 39609005#8 39609005#9 39609005#10 -448809958 39608973#1 -1016388206#3 -1016388206#2 -39607956#7 -39607956#6 -39607956#5 -E2 39601146 448195881#1 448195881#2 448195881#3 910431582 910431582.350"/>
    </vehicle>
    <vehicle id="truck46" type="truck_truck" depart="1599.74" departLane="best" departSpeed="max">
        <route edges="1016548269 1083211596#0 1083211596#1 1083211596#2 105637466#1 39633790#0 39633790#1 39633790#2 453761206#1 178413106 -482122892#5 -482122892#4 -482122892#3 -482122892#2 -482122892#1 -482122892#0"/>
    </vehicle>
    <vehicle id="truck47" type="truck_truck" depart="1634.52" departLane="best" departSpeed="max">
        <route edges="306780458#0 755512797#0 755512797#1 -13797599#3 -13797599#1 -1016548268#1 -1016548268#0 -1028339894 -212710692#1 -212710692#0 191987944 -1016388206#5 -1016388206#3 -1016388206#2 -39607956#7 -39607956#6 -39607956#5 263330574 30912891 549758313"/>
    </vehicle>
    <vehicle id="truck48" type="truck_truck" depart="1669.29" departLane="best" departSpeed="max">
        <route edges="E0 741767469#0 741767469#2 39607956#0 E2 39607956#5 39607956#6 39607956#7 1016388206#2 1016388206#3 1016388206#5 39608490#0 39608490#1 1016548268#0 1016548268#1 13797599#0 13715562 453761207#0 453761207#1 34772371#0"/>
    </vehicle>
    <vehicle id="truck49" type="truck_truck" depart="1704.07" departLane="best" departSpeed="max">
        <route edges="1016548269 1083211596#0 1083211596#1 1083211596#2 1083211597#1 704509573#0 704509573#1 704509573#2 704509573#3 704509573#4 704509573#5 704509573#6 -448195881#3 -448195881#2 -448195881#1 -39601146 -39607956#0 -263330686 263330570"/>
    </vehicle>
    <vehicle id="truck50" type="truck_truck" depart="1738.85" departLane="best" departSpeed="max">
        <route edges="-868082260#1 -868082260#0 868082261#1 868082261#2 448867798#2 448867798#3 212710702 191987944 -1016388206#5 -1016388206#3 -1016388206#2 -39607956#7 -39607956#6 -39607956#5 263330574 30912891 263330571"/>
    </vehicle>
    <vehicle id="truck51" type="truck_truck" depart="1773.63" departLane="best" departSpeed="max">
        <route edges="-34772371#3 755512797#0 755512797#1 -13797599#3 -13797599#1 -1016548268#1 -1016548268#0 -1028339894 -212710692#1 -212710692#0 191987944 -1016388206#5 -1016388206#3 -1016388206#2 -39607956#7 -39607956#6 -39607956#5 263330574 914265946"/>
    </vehicle>
    <vehicle id="truck52" type="truck_truck" depart="1808.40" departLane="best" departSpeed="max">
        <route edges="448867798#0 448867798#2 448867798#3 212710702 212710692#0 212710692#1 1028339894 1016548268#0 1016548268#1 1083211596#0 1083211596#1 1083211596#2 105637466#1 914265953#0 453761206#7 310786269 -39597607#2 -39597607#1 -39597607#0"/>
    </vehicle>
    <vehicle id="truck53" type="truck_truck" depart="1843.18" departLane="best" departSpeed="max">
        <route edges="-34772371#3 755512797#0 755512797#1 -13797599#3 -13797599#1 -1016548268#1 -1016548268#0 -1028339894 -212710692#1 -212710692#0 -212710702 -448867798#3 -448867798#2 39609021#0 39609021#1 39609021#2 39609005#3 39609005#4 39609005#5 39609005#6 456405097"/>
    </vehicle>
    <vehicle id="truck54" type="truck_truck" depart="1877.96" departLane="best" departSpeed="max">
        <route edges="-34772371#3 755512797#0 755512797#1 -13797599#3 -13797599#1 -1016548268#1 -1016548268#0 -1028339894 -212710692#1 -212710692#0 -212710702 -448867798#3 -448867798#2 -448867798#0"/>
    </vehicle>
    <vehicle id="truck55" type="truck_truck" depart="1912.73" departLane="best" departSpeed="max">
        <route edges="482122892#0 39598055 306780234#1 306780234#2 306780234#3 39598589#0 39598589#1 -39607956#7 -39607956#6 -39607956#5 263330574 30912891 263330571"/>
    </vehicle>
    <vehicle id="truck56" type="truck_truck" depart="1947.51" departLane="best" departSpeed="max">
        <route edges="263330575 30912891 263330569 263330686 39607956#0 E2 39607956#5 39607956#6 39607956#7 1016388206#2 1016388206#3 1016388206#5 39608733 39608754 -448867798#3 -448867798#2 -868082261#2 -868082261#1 -868082261#0 868082260#1"/>
    </vehicle>
    <vehicle id="truck57" type="truck_truck" depart="1982.29" departLane="best" departSpeed="max">
        <route edges="39598863#0 39598863#1 448195881#2 448195881#3 453762947 453762946#0 453762946#1 453762943#0 453762943#1 1014684309 453761206#0 453761206#1 178413106 -482122892#5 -482122892#4 -482122892#3 -482122892#2 -482122892#1 -482122892#0"/>
    </vehicle>
    <vehicle id="truck58" type="truck_truck" depart="2017.06" departLane="best" departSpeed="max">
        <route edges="39586894#0 39586894#1 39588456 308771430 39587108#0 39587108#2 306780234#0 306780234#1 306780234#2 306780234#3 39598589#0 39598589#1 1016388206#2 1016388206#3 39608992#1 448809958 456405094#0 456405094#1 39609005#0 39609005#3 39609005#4 39609005#5 39609005#6 456405097"/>
    </vehicle>
    <vehicle id="truck59" type="truck_truck" depart="2051.84" departLane="best" departSpeed="max">
        <route edges="E0 741767469#0 39598786#0 39598786#1 448195881#1 448195881#2 448195881#3 453762947 453762946#0 453762946#1 453762943#0 453762943#1 1014684309 453761206#0 453761206#1 453761206#2 453761206#3 453761206#4 453761206#7 310786269 -39597607#2 -39597607#1 -39597607#0"/>
    </vehicle>
    <vehicle id="truck60" type="truck_truck" depart="2086.62" departLane="best" departSpeed="max">
        <route edges="1016548269 -1016548268#1 -1016548268#0 -1028339894 30912883#0 30912883#1 30912883#2 212710696#0 212710696#1"/>
    </vehicle>
    <vehicle id="truck61" type="truck_truck" depart="2121.40" departLane="best" departSpeed="max">
        <route edges="448867798#0 448867798#2 448867798#3 212710702 212710692#0 212710692#1 1028339894 1016548268#0 1016548268#1 13797599#0 13797599#2 13797599#4"/>
    </vehicle>
    <vehicle id="truck62" type="truck_truck" depart="2156.17" departLane="best" departSpeed="max">
        <route edges="-34772371#3 755512797#0 755512797#1 -13797599#3 -13797599#1 -1016548268#1 -1016548268#0 -1028339894 -212710692#1 -212710692#0 191987944 -1016388206#5 -1016388206#3 -1016388206#2 -39607956#7 -39607956#6 -39607956#5 263330574 914265946"/>
    </vehicle>
    <vehicle id="truck63" type="truck_truck" depart="2190.95" departLane="best" departSpeed="max">
        <route edges="1016548269 1083211596#0 1083211596#1 1083211596#2 1083211597#1 704509573#0 704509573#1 704509573#2 704509573#3 704509573#4 704509573#5 704509573#6 910431582 910431582.350"/>
    </vehicle>
    <vehicle id="truck64" type="truck_truck" depart="2225.73" departLane="best" departSpeed="max">
        <route edges="39598863#0 39598863#1 -448195881#1 -39601146 E2 39607956#5 39607956#6 39607956#7 1016388206#2 1016388206#3 1016388206#5 39608733 39608754 -448867798#3 -448867798#2 -448867798#0"/>
    </vehicle>
    <vehicle id="truck65" type="truck_truck" depart="2260.50" departLane="best" departSpeed="max">
        <route edges="263330575 30912891 263330569 263330686 39607956#0 39601146 448195881#1 448195881#2 448195881#3 453762947 453762946#0 453762946#1 453762943#0 453762943#1 1014684309 453761206#0 453761206#1 178413106 -482122892#5 -482122892#4 -482122892#3 -482122892#2 -482122892#1 -482122892#0"/>
    </vehicle>
    <vehicle id="truck66" type="truck_truck" depart="2295.28" departLane="best" departSpeed="max">
        <route edges="263330575 30912891 263330569 263330686 39607956#0 E2 39607956#5 39607956#6 39607956#7 1016388206#2 1016388206#3 1016388206#5 39608490#0 39608490#1 1016548268#0 1016548268#1 13797599#0 13715562 453761207#0 453761207#1 228569801"/>
    </vehicle>
    <vehicle id="truck67" type="truck_truck" depart="2330.06" departLane="best" departSpeed="max">
        <route edges="-212710696#1 -212710696#0 28785456 212710702 212710692#0 212710692#1 1028339894 1016548268#0 1016548268#1 1083211596#0 1083211596#1 1083211596#2 105637466#1 914265953#0 206544631"/>
    </vehicle>
    <vehicle id="truck68" type="truck_truck" depart="2364.83" departLane="best" departSpeed="max">
        <route edges="306780458#0 755512797#0 755512797#1 -13797599#3 -13797599#1 -1016548268#1 -1016548268#0 -1028339894 -212710692#1 -212710692#0 191987944 -1016388206#5 -1016388206#3 -1016388206#2 -39607956#7 -39607956#6 -39607956#5 263330574 30912891 549758313"/>
    </vehicle>
    <vehicle id="truck69" type="truck_truck" depart="2399.61" departLane="best" departSpeed="max">
        <route edges="-13797599#4 -13797599#3 -13797599#1 -1016548268#1 -1016548268#0 -1028339894 -212710692#1 -212710692#0 191987944 -1016388206#5 -1016388206#3 -1016388206#2 -39607956#7 -39607956#6 -39607956#5 263330574 30912891 263330571"/>
    </vehicle>
    <vehicle id="truck70" type="truck_truck" depart="2434.39" departLane="best" departSpeed="max">
        <route edges="306780458#0 755512797#0 755512797#1 -13797599#3 -13797599#1 1083211596#0 1083211596#1 1083211596#2 1083211597#1 704509573#0 704509573#1 704509573#2 704509573#3 704509573#4 704509573#5 704509573#6 910431582 910431582.350"/>
    </vehicle>
    <vehicle id="truck71" type="truck_truck" depart="2469.17" departLane="best" departSpeed="max">
        <route edges="-212710696#1 -212710696#0 28785456 212710702 191987944 -1016388206#5 -1016388206#3 -1016388206#2 -39607956#7 -39607956#6 -39607956#5 -E2 -39607956#0 -741767469#2 -741767469#0 E1"/>
    </vehicle>
    <vehicle id="truck72" type="truck_truck" depart="2503.94" departLane="best" departSpeed="max">
        <route edges="-34772371#3 755512797#0 755512797#1 -13797599#3 -13797599#1 -1016548268#1 -1016548268#0 -1028339894 -212710692#1 -212710692#0 -212710702 -448867798#3 -448867798#2 -448867798#0"/>
    </vehicle>
    <vehicle id="truck73" type="truck_truck" depart="2538.72" departLane="best" departSpeed="max">
        <route edges="448867798#0 448867798#2 448867798#3 212710702 212710692#0 212710692#1 1028339894 1016548268#0 1016548268#1 13797599#0 13797599#2 13797599#4"/>
    </vehicle>
    <vehicle id="truck74" type="truck_truck" depart="2573.50" departLane="best" departSpeed="max">
        <route edges="30912884 30912883#2 28785456 212710702 212710692#0 212710692#1 1028339894 1016548268#0 1016548268#1 13797599#0 13715562 453761207#0 453761207#1 34772371#0"/>
    </vehicle>
    <vehicle id="truck75" type="truck_truck" depart="2608.27" departLane="best" departSpeed="max">
        <route edges="1016548269 -1016548268#1 -1016548268#0 -1028339894 -212710692#1 -212710692#0 191987944 -1016388206#5 -1016388206#3 -1016388206#2 -39607956#7 -39607956#6 -39607956#5 263330574 30912891 263330571"/>
    </vehicle>
    <vehicle id="truck76" type="truck_truck" depart="2643.05" departLane="best" departSpeed="max">
        <route edges="306780458#0 755512797#0 755512797#1 -13797599#3 -13797599#1 -1016548268#1 -1016548268#0 -1028339894 -212710692#1 -212710692#0 191987944 -1016388206#5 -1016388206#3 -1016388206#2 -39607956#7 -39607956#6 -39607956#5 263330574 914265946"/>
    </vehicle>
    <vehicle id="truck77" type="truck_truck" depart="2677.83" departLane="best" departSpeed="max">
        <route edges="-34772371#3 755512797#0 755512797#1 -13797599#3 -13797599#1 -1016548268#1 -1016548268#0 -1028339894 -212710692#1 -212710692#0 -212710702 -448867798#3 -448867798#2 39609021#0 39609021#1 39609021#2 39609005#3 39609005#4 39609005#5 39609005#6 456405097"/>
    </vehicle>
    <vehicle id="truck78" type="truck_truck" depart="2712.60" departLane="best" departSpeed="max">
        <route edges="37345793 28785456 212710702 212710692#0 212710692#1 1028339894 1016548268#0 1016548268#1 1083211596#0 1083211596#1 1083211596#2 105637466#1 914265953#0 206544631"/>
    </vehicle>
    <vehicle id="truck79" type="truck_truck" depart="2747.38" departLane="best" departSpeed="max">
        <route edges="-868082260#1 -868082260#0 868082261#1 868082261#2 448867798#2 448867798#3 212710702 191987944 -1016388206#5 -1016388206#3 -1016388206#2 -39607956#7 -39607956#6 -39607956#5 263330574 30912891 549758313"/>
    </vehicle>
    <vehicle id="truck80" type="truck_truck" depart="2782.16" departLane="best" departSpeed="max">
        <route edges="-13797599#4 -13797599#3 -13797599#1 -1016548268#1 -1016548268#0 252525258"/>
    </vehicle>
    <vehicle id="truck81" type="truck_truck" depart="2816.94" departLane="best" departSpeed="max">
        <route edges="448867798#0 448867798#2 448867798#3 212710702 212710692#0 212710692#1 1028339894 1016548268#0 1016548268#1 1083211596#0 1083211596#1 1083211596#2 1083211597#1 704509573#0 704509573#1 704509573#2 704509573#3 704509573#4 704509573#5 704509573#6 910431582 910431582.350"/>
    </vehicle>
    <vehicle id="truck82" type="truck_truck" depart="2851.71" departLane="best" departSpeed="max">