<?xml version="1.0" encoding="UTF-8"?>

<!-- generated on 2023-06-20 21:56:43.872313 by randomTrips.py v1_16_0+0000-94ec4c6cd72
<configuration>
    <begin value="0"/>
    <end value="39600"/>
    <fringe-factor value="max"/>
    <fringe-start-attributes value="departSpeed=&quot;max&quot;"/>
    <insertion-density value="4.0"/>
    <min-distance.fringe value="10.0"/>
    <min-distance value="600.0"/>
    <net-file value="osm.netbaseline.xml.gz"/>
    <remove-loops value="True"/>
    <route-file value="osm.deliveryrandom.rou.xml"/>
    <trip-attributes value="departLane=&quot;best&quot;"/>
    <prefix value="deliveryrand"/>
    <validate value="True"/>
    <vclass value="delivery"/>
    <vehicle-class value="delivery"/>
</configuration>
-->

<!-- generated on 2023-06-20 21:56:43 by Eclipse SUMO duarouter Version 1.16.0
<configuration xmlns:xsi="http://www.w3.org/2001/XMLSchema-instance" xsi:noNamespaceSchemaLocation="http://sumo.dlr.de/xsd/duarouterConfiguration.xsd">

    <input>
        <net-file value="osm.netbaseline.xml.gz"/>
        <route-files value="trips.trips.xml"/>
    </input>

    <output>
        <output-file value="osm.deliveryrandom.rou.xml"/>
        <alternatives-output value="NUL"/>
    </output>

    <processing>
        <remove-loops value="true"/>
    </processing>

    <time>
        <begin value="0"/>
        <end value="39600"/>
    </time>

    <report>
        <no-warnings value="true"/>
        <ignore-errors value="true"/>
        <no-step-log value="true"/>
    </report>

</configuration>
-->

<routes xmlns:xsi="http://www.w3.org/2001/XMLSchema-instance" xsi:noNamespaceSchemaLocation="http://sumo.dlr.de/xsd/routes_file.xsd">
    <vType id="deliveryrand_delivery" vClass="delivery" carFollowModel="KraussPS" color="gray"/>
    <vehicle id="deliveryrand0" type="deliveryrand_delivery" depart="0.00" departLane="best" departSpeed="max">
        <route edges="30912884 30912883#2 28785456 212710702 212710692#0 212710692#1 1028339894 1016548268#0 1016548268#1 1083211596#0 1083211596#1 1083211596#2 105637466#1 39633790#0 39633790#1 39633790#2 453761206#1 178413106 309613711#0 309613711#1"/>
    </vehicle>
    <vehicle id="deliveryrand1" type="deliveryrand_delivery" depart="16.63" departLane="best" departSpeed="max">
        <route edges="39598863#0 39598863#1 448195881#2 448195881#3 453762947 453762946#0 453762946#1 453762943#0 453762943#1 1014684309 453761206#0 453761206#1 453761206#2 453761206#3 453761206#4 453761206#7 310786269 -39597607#2 -39597607#1 -39597607#0"/>
    </vehicle>
    <vehicle id="deliveryrand2" type="deliveryrand_delivery" depart="33.27" departLane="best" departSpeed="max">
        <route edges="-456405097 39609005#7 39609005#8 39609005#9 39609005#10 -448809958 39608973#1 -1016388206#3 39598458#0 39598232#0 456405100#0 456405100#1 456405100#2 105637466#1 914265953#0 453761206#7 310786269 -39597607#2 -39597607#1 -1054250665#1 -1054250665#0"/>
    </vehicle>
    <vehicle id="deliveryrand3" type="deliveryrand_delivery" depart="49.90" departLane="best" departSpeed="max">
        <route edges="-1017147074#0 30912941#0 30912941#2 1014684309 453761206#0 453761206#1 453761206#2 453761206#3 453761206#4 453761206#7 310786269 -39597607#2 -39597607#1 -1054250665#1 1054250667"/>
    </vehicle>
    <vehicle id="deliveryrand4" type="deliveryrand_delivery" depart="66.54" departLane="best" departSpeed="max">
        <route edges="37345793 28785456 212710702 212710692#0 212710692#1 1028339894 1016548268#0 1016548268#1 1083211596#0 1083211596#1 1083211596#2 105637466#1 914265953#0 453761206#7 310786269 -39597607#2 -39597607#1 -1054250665#1 -1054250665#0"/>
    </vehicle>
    <vehicle id="deliveryrand5" type="deliveryrand_delivery" depart="83.17" departLane="best" departSpeed="max">
        <route edges="37345793 28785456 212710702 212710692#0 212710692#1 1028339894 1016548268#0 1016548268#1 13797599#0 13715562 453761207#0 453761207#1 34772371#0"/>
    </vehicle>
    <vehicle id="deliveryrand6" type="deliveryrand_delivery" depart="99.80" departLane="best" departSpeed="max">
        <route edges="-986534474 -1016548268#0 -1028339894 -212710692#1 -212710692#0 191987944 -1016388206#5 -1016388206#3 -1016388206#2 -39607956#7 -39607956#6 -39607956#5 -E2 -39607956#0 -741767469#2 -741767469#0 E1"/>
    </vehicle>
    <vehicle id="deliveryrand7" type="deliveryrand_delivery" depart="116.44" departLane="best" departSpeed="max">
        <route edges="-34772371#3 755512797#0 755512797#1 -13797599#3 -13797599#1 1083211596#0 1083211596#1 1083211596#2 105637466#1 39633790#0 39633790#1 39633790#2 453761206#1 178413106 -482122892#5 -482122892#4 -482122892#3 -482122892#2 309609104"/>
    </vehicle>
    <vehicle id="deliveryrand8" type="deliveryrand_delivery" depart="133.07" departLane="best" departSpeed="max">
        <route edges="306780458#0 755512797#0 755512797#1 -13797599#3 -13797599#1 -1016548268#1 -1016548268#0 -1028339894 30912883#0 30912883#1 30912883#2 212710696#0 -37345789"/>
    </vehicle>
    <vehicle id="deliveryrand9" type="deliveryrand_delivery" depart="149.71" departLane="best" departSpeed="max">
        <route edges="-307088020 482122892#3 482122892#4 482122892#5 39597960#1 453761206#3 453761206#4 453761206#7 453761206#8 453761206#9 1014684310#0 1014684310#1 1014684310#2 -13797599#1 -1016548268#1 -1016548268#0 -1028339894 -212710692#1 -212710692#0 -212710702 -448867798#3 -448867798#2 39609021#0 39609021#1 39609021#2 39609005#3 39609005#4 39609005#5 39609005#6 456405097"/>
    </vehicle>
    <vehicle id="deliveryrand10" type="deliveryrand_delivery" depart="166.34" departLane="best" departSpeed="max">
        <route edges="-307088020 482122892#3 482122892#4 482122892#5 39597960#1 453761206#3 453761206#4 453761206#7 453761206#8 453761206#9 1014684310#0 1014684310#1 1014684310#2 -13797599#1 -1016548268#1 -1016548268#0 252525258"/>
    </vehicle>
    <vehicle id="deliveryrand11" type="deliveryrand_delivery" depart="182.97" departLane="best" departSpeed="max">
        <route edges="E0 741767469#0 39598786#0 39598786#1 448195881#1 448195881#2 448195881#3 453762947 453762946#0 453762946#1 453762943#0 453762943#1 1014684309 453761206#0 453761206#1 178413106 -482122892#5 309613710#0 309613710#1"/>
    </vehicle>
    <vehicle id="deliveryrand12" type="deliveryrand_delivery" depart="199.61" departLane="best" departSpeed="max">
        <route edges="-986534474 1016548268#1 13797599#0 13715562 453761207#0 453761207#1 34772371#0"/>
    </vehicle>
    <vehicle id="deliveryrand13" type="deliveryrand_delivery" depart="216.24" departLane="best" departSpeed="max">
        <route edges="39586894#0 39586894#1 39588456 308771430 39587108#0 39587108#2 306780234#0 306780234#1 306780234#2 453761206#0 453761206#1 453761206#2 453761206#3 453761206#4 453761206#7 453761206#8 453761206#9 1014684310#0 1014684310#1 1014684310#2 -13797599#1 -1016548268#1 -1016548268#0 -1028339894 -212710692#1 -212710692#0 -212710702 -448867798#3 -448867798#2 -868082261#2 -868082261#1 -868082261#0 868082260#1"/>
    </vehicle>
    <vehicle id="deliveryrand14" type="deliveryrand_delivery" depart="232.88" departLane="best" departSpeed="max">
        <route edges="39598863#0 39598863#1 -448195881#1 -39601146 E2 39607956#5 39607956#6 39607956#7 1016388206#2 1016388206#3 1016388206#5 39608490#0 39608490#1 -1028339894 30912883#0 30912883#1 30912883#2 212710696#0 212710696#1"/>
    </vehicle>
    <vehicle id="deliveryrand15" type="deliveryrand_delivery" depart="249.51" departLane="best" departSpeed="max">
        <route edges="1054250665#0 1054250665#1 39597607#1 39597607#2 39597779#0 39597779#1 39590262#0 39590262#1 1083211596#1 1083211596#2 1083211597#1 704509573#0 704509573#1 704509573#2 704509573#3 704509573#4 704509573#5 704509573#6 -448195881#3 -448195881#2 -448195881#1 -39601146 -39607956#0 -263330686 263330570"/>
    </vehicle>
    <vehicle id="deliveryrand16" type="deliveryrand_delivery" depart="266.14" departLane="best" departSpeed="max">
        <route edges="448867798#0 448867798#2 448867798#3 212710702 212710692#0 212710692#1 1028339894 1016548268#0 1016548268#1 1083211596#0 1083211596#1 1083211596#2 105637466#1 39633790#0 39633790#1 39633790#2 453761206#1 178413106 -482122892#5 -482122892#4 -482122892#3 307088020"/>
    </vehicle>
    <vehicle id="deliveryrand17" type="deliveryrand_delivery" depart="282.78" departLane="best" departSpeed="max">
        <route edges="1014684308 1014684308.33 -453762946#1 -453762946#0 -453762947 -448195881#3 -448195881#2 -448195881#1 -39601146 E2 263330574 914265946"/>
    </vehicle>
    <vehicle id="deliveryrand18" type="deliveryrand_delivery" depart="299.41" departLane="best" departSpeed="max">
        <route edges="E0 741767469#0 39598786#0 39598786#1 448195881#1 448195881#2 448195881#3 453762947 453762946#0 453762946#1 453762943#0 453762943#1 1014684309 453761206#0 453761206#1 453761206#2 453761206#3 453761206#4 453761206#7 310786269 -39597607#2 309387164"/>
    </vehicle>
    <vehicle id="deliveryrand19" type="deliveryrand_delivery" depart="316.04" departLane="best" departSpeed="max">
        <route edges="-13797599#4 -13797599#3 -13797599#1 -1016548268#1 -1016548268#0 -1028339894 30912883#0 30912883#1 30912883#2 212710696#0 -37345789"/>
    </vehicle>
    <vehicle id="deliveryrand20" type="deliveryrand_delivery" depart="332.68" departLane="best" departSpeed="max">
        <route edges="37345793 28785456 212710702 191987944 -1016388206#5 -1016388206#3 -1016388206#2 -39607956#7 -39607956#6 -39607956#5 263330574 30912891 263330571"/>
    </vehicle>
    <vehicle id="deliveryrand21" type="deliveryrand_delivery" depart="349.31" departLane="best" departSpeed="max">
        <route edges="-13797599#4 -13797599#3 -13797599#1 -1016548268#1 -1016548268#0 252525258"/>
    </vehicle>
    <vehicle id="deliveryrand22" type="deliveryrand_delivery" depart="365.95" departLane="best" departSpeed="max">
        <route edges="E0 741767469#0 39598786#0 39598786#1 448195881#1 448195881#2 448195881#3 453762947 453762946#0 453762946#1 453762943#0 453762943#1 1014684309 453761206#0 453761206#1 178413106 -482122892#5 -482122892#4 -482122892#3 -482122892#2 309609103#2"/>
    </vehicle>
    <vehicle id="deliveryrand23" type="deliveryrand_delivery" depart="382.58" departLane="best" departSpeed="max">
        <route edges="-1017147074#0 -453762944#3 -453762944#1 -453762944#0 -453762946#1 -453762946#0 -453762947 -448195881#3 -448195881#2 -448195881#1 -39601146 E2 39607956#5 39607956#6 39607956#7 1016388206#2 1016388206#3 39608992#1 448809958 456405094#0 456405094#1 39609005#0 39609005#3 39609005#4 39609005#5 39609005#6 456405097"/>
    </vehicle>
    <vehicle id="deliveryrand24" type="deliveryrand_delivery" depart="399.21" departLane="best" departSpeed="max">
        <route edges="263330575 30912891 263330569 263330686 39607956#0 39601146 448195881#1 448195881#2 448195881#3 453762947 453762946#0 453762946#1 453762943#0 453762943#1 1014684309 453761206#0 453761206#1 178413106 -482122892#5 -482122892#4 -482122892#3 -482122892#2 309609103#2"/>
    </vehicle>
    <vehicle id="deliveryrand25" type="deliveryrand_delivery" depart="415.85" departLane="best" departSpeed="max">
        <route edges="-206544631 453761206#7 453761206#8 453761206#9 39590262#0 39590262#1 1083211596#1 1083211596#2 1083211597#1 704509573#0 704509573#1 704509573#2 39598629#0 39598629#1 39598629#2 39598629#3 39598629#4 -39607956#5 263330574 30912891 263330571"/>
    </vehicle>
    <vehicle id="deliveryrand26" type="deliveryrand_delivery" depart="432.48" departLane="best" departSpeed="max">
        <route edges="39598863#0 39598863#1 448195881#2 448195881#3 453762947 453762946#0 453762946#1 453762943#0 453762943#1 1014684309 453761206#0 453761206#1 453761206#2 453761206#3 453761206#4 206544631"/>
    </vehicle>
    <vehicle id="deliveryrand27" type="deliveryrand_delivery" depart="449.12" departLane="best" departSpeed="max">
        <route edges="448867798#0 448867798#2 448867798#3 212710702 212710692#0 212710692#1 1028339894 1016548268#0 1016548268#1 1083211596#0 1083211596#1 1083211596#2 1083211597#1 704509573#0 704509573#1 704509573#2 704509573#3 704509573#4 704509573#5 704509573#6 910431582 910431582.350"/>
    </vehicle>
    <vehicle id="deliveryrand28" type="deliveryrand_delivery" depart="465.75" departLane="best" departSpeed="max">
        <route edges="1016548269 1083211596#0 1083211596#1 1083211596#2 105637466#1 39633790#0 39633790#1 39633790#2 453761206#1 178413106 -482122892#5 -482122892#4 -482122892#3 -482122892#2 -482122892#1 -482122892#0"/>
    </vehicle>
    <vehicle id="deliveryrand29" type="deliveryrand_delivery" depart="482.38" departLane="best" departSpeed="max">
        <route edges="37345789 -212710696#0 28785456 212710702 212710692#0 212710692#1 1028339894 1016548268#0 1016548268#1 1083211596#0 1083211596#1 1083211596#2 105637466#1 39633790#0 39633790#1 39633790#2 453761206#1 178413106 -482122892#5 -482122892#4 -482122892#3 -482122892#2 309609103#2"/>
    </vehicle>
    <vehicle id="deliveryrand30" type="deliveryrand_delivery" depart="499.02" departLane="best" departSpeed="max">
        <route edges="37345789 -212710696#0 28785456 212710702 212710692#0 212710692#1 1028339894 1016548268#0 1016548268#1 1083211596#0 1083211596#1 1083211596#2 105637466#1 39633790#0 39633790#1 39633790#2 453761206#1 178413106 -482122892#5 -482122892#4 -482122892#3 -482122892#2 309609103#2"/>
    </vehicle>
    <vehicle id="deliveryrand31" type="deliveryrand_delivery" depart="515.65" departLane="best" departSpeed="max">
        <route edges="-1017147074#0 30912941#0 30912941#2 1014684309 453761206#0 453761206#1 453761206#2 453761206#3 453761206#4 453761206#7 453761206#8 453761206#9 1014684310#0 1014684310#1 1014684310#2 13715562 453761207#0 453761207#1 228569801"/>
    </vehicle>
    <vehicle id="deliveryrand32" type="deliveryrand_delivery" depart="532.29" departLane="best" departSpeed="max">
        <route edges="39598863#0 39598863#1 -448195881#1 -39601146 E2 39607956#5 39607956#6 39607956#7 1016388206#2 1016388206#3 1016388206#5 39608733 39608754 -448867798#3 -448867798#2 -868082261#2 -868082261#1 -868082261#0 868082296"/>
    </vehicle>
    <vehicle id="deliveryrand33" type="deliveryrand_delivery" depart="548.92" departLane="best" departSpeed="max">
        <route edges="-309613709#1 -309613709#0 482122892#4 482122892#5 39597960#1 453761206#3 453761206#4 453761206#7 453761206#8 453761206#9 1014684310#0 1014684310#1 1014684310#2 -13797599#1 -1016548268#1 -1016548268#0 -1028339894 30912883#0 30912883#1 30912883#2 212710696#0 -37345789"/>
    </vehicle>
    <vehicle id="deliveryrand34" type="deliveryrand_delivery" depart="565.55" departLane="best" departSpeed="max">
        <route edges="39598863#0 39598863#1 -448195881#1 -39601146 E2 39607956#5 39607956#6 39607956#7 1016388206#2 1016388206#3 1016388206#5 39608490#0 39608490#1 1016548268#0 986534474"/>
    </vehicle>
    <vehicle id="deliveryrand35" type="deliveryrand_delivery" depart="582.19" departLane="best" departSpeed="max">
        <route edges="-13797599#4 -13797599#3 -13797599#1 -1016548268#1 -1016548268#0 -1028339894 -212710692#1 -212710692#0 191987944 -1016388206#5 -1016388206#3 -1016388206#2 -39607956#7 -39607956#6 -39607956#5 263330574 30912891 549758313"/>
    </vehicle>
    <vehicle id="deliveryrand36" type="deliveryrand_delivery" depart="598.82" departLane="best" departSpeed="max">
        <route edges="-868082296 -868082260#0 868082261#1 868082261#2 448867798#2 448867798#3 212710702 212710692#0 212710692#1 1028339894 1016548268#0 1016548268#1 1083211596#0 1083211596#1 1083211596#2 105637466#1 39633790#0 39633790#1 39633790#2 453761206#1 178413106 -482122892#5 -482122892#4 -482122892#3 -482122892#2 309609104"/>
    </vehicle>
    <vehicle id="deliveryrand37" type="deliveryrand_delivery" depart="615.46" departLane="best" departSpeed="max">
        <route edges="-309609104 -482122892#1 39598055 306780234#1 306780234#2 306780234#3 39598589#0 39598589#1 -39607956#7 -39607956#6 -39607956#5 263330574 914265946"/>
    </vehicle>
    <vehicle id="deliveryrand38" type="deliveryrand_delivery" depart="632.09" departLane="best" departSpeed="max">
        <route edges="-456405097 39609005#7 39609005#8 39609005#9 39609005#10 -448809958 39608973#1 -1016388206#3 39598458#0 39598232#0 456405100#0 456405100#1 456405100#2 105637466#1 914265953#0 453761206#7 310786269 -39597607#2 -39597607#1 -1054250665#1 1054250667"/>
    </vehicle>
    <vehicle id="deliveryrand39" type="deliveryrand_delivery" depart="648.72" departLane="best" departSpeed="max">
        <route edges="-309387164 39597607#2 39597779#0 39597779#1 1014684310#0 1014684310#1 1014684310#2 -13797599#1 -1016548268#1 -1016548268#0 -1028339894 30912883#0 30912883#1 30912883#2 212710696#0 212710696#1"/>
    </vehicle>
    <vehicle id="deliveryrand40" type="deliveryrand_delivery" depart="665.36" departLane="best" departSpeed="max">
        <route edges="E0 741767469#0 39598786#0 39598786#1 448195881#1 448195881#2 448195881#3 453762947 453762946#0 453762946#1 453762943#0 453762943#1 1014684309 453761206#0 453761206#1 178413106 309613711#0 309613711#1"/>
    </vehicle>
    <vehicle id="deliveryrand41" type="deliveryrand_delivery" depart="681.99" departLane="best" departSpeed="max">
        <route edges="-868082260#1 -868082260#0 868082261#1 868082261#2 448867798#2 448867798#3 212710702 212710692#0 212710692#1 1028339894 1016548268#0 1016548268#1 1083211596#0 1083211596#1 1083211596#2 105637466#1 39633790#0 39633790#1 39633790#2 453761206#1 178413106 -482122892#5 -482122892#4 -482122892#3 -482122892#2 309609103#2"/>
    </vehicle>
    <vehicle id="deliveryrand42" type="deliveryrand_delivery" depart="698.63" departLane="best" departSpeed="max">
        <route edges="448867798#0 448867798#2 448867798#3 212710702 212710692#0 212710692#1 1028339894 1016548268#0 1016548268#1 1083211596#0 1083211596#1 1083211596#2 105637466#1 39633790#0 39633790#1 39633790#2 453761206#1 178413106 -482122892#5 -482122892#4 -482122892#3 -482122892#2 309609104"/>
    </vehicle>
    <vehicle id="deliveryrand43" type="deliveryrand_delivery" depart="715.26" departLane="best" departSpeed="max">
        <route edges="37345793 28785456 212710702 212710692#0 212710692#1 1028339894 1016548268#0 1016548268#1 1083211596#0 1083211596#1 1083211596#2 1083211597#1 704509573#0 704509573#1 704509573#2 704509573#3 704509573#4 704509573#5 704509573#6 453762947 453762946#0 453762946#1 453762944#0 453762944#1 453762944#2 1017147074#0 39587490#0 -308771430 -39588456 39586894#2 1017125564"/>
    </vehicle>
    <vehicle id="deliveryrand44" type="deliveryrand_delivery" depart="731.89" departLane="best" departSpeed="max">
        <route edges="-206544631 453761206#7 453761206#8 453761206#9 39590262#0 39590262#1 1083211596#1 1083211596#2 1083211597#1 704509573#0 704509573#1 704509573#2 39598629#0 39598629#1 39598629#2 39598629#3 39598629#4 -39607956#5 263330574 30912891 263330571"/>
    </vehicle>
    <vehicle id="deliveryrand45" type="deliveryrand_delivery" depart="748.53" departLane="best" departSpeed="max">
        <route edges="-456405097 39609005#7 39609005#8 39609005#9 39609005#10 -448809958 39608973#1 -1016388206#3 39598458#0 39598232#0 456405100#0 456405100#1 456405100#2 105637466#1 39633790#0 39633790#1 39633790#2 453761206#1 178413106 -482122892#5 -482122892#4 -482122892#3 307088020"/>
    </vehicle>
    <vehicle id="deliveryrand46" type="deliveryrand_delivery" depart="765.16" departLane="best" departSpeed="max">
        <route edges="30912884 30912883#2 28785456 212710702 212710692#0 212710692#1 1028339894 1016548268#0 1016548268#1 1083211596#0 1083211596#1 1083211596#2 105637466#1 39633790#0 39633790#1 39633790#2 453761206#1 178413106 309613711#0 309613711#1"/>
    </vehicle>
    <vehicle id="deliveryrand47" type="deliveryrand_delivery" depart="781.80" departLane="best" departSpeed="max">
        <route edges="E0 741767469#0 741767469#2 39607956#0 E2 39607956#5 39607956#6 39607956#7 1016388206#2 1016388206#3 1016388206#5 39608733 39608754 -448867798#3 -448867798#2 -448867798#0"/>
    </vehicle>
    <vehicle id="deliveryrand48" type="deliveryrand_delivery" depart="798.43" departLane="best" departSpeed="max">
        <route edges="-309387164 39597607#2 39597779#0 39597779#1 39590262#0 39590262#1 1083211596#1 1083211596#2 1083211597#1 704509573#0 704509573#1 704509573#2 39598629#0 39598629#1 39598629#2 39598629#3 39598629#4 -39607956#5 263330574 30912891 263330571"/>
    </vehicle>
    <vehicle id="deliveryrand49" type="deliveryrand_delivery" depart="815.06" departLane="best" departSpeed="max">
        <route edges="-456405097 39609005#7 39609005#8 39609005#9 39609005#10 -448809958 39608973#1 -1016388206#3 39598458#0 39598232#0 456405100#0 456405100#1 456405100#2 105637466#1 914265953#0 206544631"/>
    </vehicle>
    <vehicle id="deliveryrand50" type="deliveryrand_delivery" depart="831.70" departLane="best" departSpeed="max">
        <route edges="-868082260#1 -868082260#0 868082261#1 868082261#2 448867798#2 448867798#3 212710702 212710692#0 212710692#1 1028339894 1016548268#0 1016548268#1 1083211596#0 1083211596#1 1083211596#2 1083211597#1 704509573#0 704509573#1 704509573#2 704509573#3 704509573#4 704509573#5 704509573#6 910431582 910431582.350"/>
    </vehicle>
    <vehicle id="deliveryrand51" type="deliveryrand_delivery" depart="848.33" departLane="best" departSpeed="max">
        <route edges="E0 741767469#0 741767469#2 39607956#0 E2 39607956#5 39607956#6 39607956#7 1016388206#2 1016388206#3 1016388206#5 39608733 39608754 -448867798#3 -448867798#2 -868082261#2 -868082261#1 -868082261#0 868082296"/>
    </vehicle>
    <vehicle id="deliveryrand52" type="deliveryrand_delivery" depart="864.97" departLane="best" departSpeed="max">
        <route edges="E0 741767469#0 39598786#0 39598786#1 448195881#1 448195881#2 448195881#3 453762947 453762946#0 453762946#1 453762944#0 453762944#1 986533205"/>
    </vehicle>
    <vehicle id="deliveryrand53" type="deliveryrand_delivery" depart="881.60" departLane="best" departSpeed="max">
        <route edges="-868082296 -868082260#0 868082261#1 868082261#2 448867798#2 448867798#3 212710702 212710692#0 212710692#1 1028339894 1016548268#0 1016548268#1 1083211596#0 1083211596#1 1083211596#2 105637466#1 914265953#0 453761206#7 310786269 -39597607#2 -39597607#1 -1054250665#1 1054250667"/>
    </vehicle>
    <vehicle id="deliveryrand54" type="deliveryrand_delivery" depart="898.23" departLane="best" departSpeed="max">
        <route edges="-34772371#3 755512797#0 755512797#1 -13797599#3 -13797599#1 -1016548268#1 -1016548268#0 -1028339894 30912883#0 30912883#1 30912883#2 212710696#0 -37345789"/>
    </vehicle>
    <vehicle id="deliveryrand55" type="deliveryrand_delivery" depart="914.87" departLane="best" departSpeed="max">
        <route edges="-34772371#3 755512797#0 755512797#1 -13797599#3 -13797599#1 -1016548268#1 -1016548268#0 -1028339894 -212710692#1 -212710692#0 191987944 -1016388206#5 -1016388206#3 -1016388206#2 -39607956#7 -39607956#6 -39607956#5 -E2 -39607956#0 -741767469#2 -741767469#0 E1"/>
    </vehicle>
    <vehicle id="deliveryrand56" type="deliveryrand_delivery" depart="931.50" departLane="best" departSpeed="max">
        <route edges="-309609104 482122892#2 482122892#3 482122892#4 482122892#5 39597960#1 453761206#3 453761206#4 453761206#7 453761206#8 453761206#9 1014684310#0 1014684310#1 1014684310#2 -13797599#1 -1016548268#1 -1016548268#0 -1028339894 -212710692#1 -212710692#0 -212710702 -448867798#3 -448867798#2 -868082261#2 -868082261#1 -868082261#0 868082260#1"/>
    </vehicle>
    <vehicle id="deliveryrand57" type="deliveryrand_delivery" depart="948.13" departLane="best" departSpeed="max">
        <route edges="-868082260#1 -868082260#0 868082261#1 868082261#2 448867798#2 448867798#3 212710702 191987944 -1016388206#5 -1016388206#3 -1016388206#2 -39607956#7 -39607956#6 -39607956#5 263330574 30912891 263330571"/>
    </vehicle>
    <vehicle id="deliveryrand58" type="deliveryrand_delivery" depart="964.77" departLane="best" departSpeed="max">
        <route edges="482122892#0 39598055 306780234#1 306780234#2 306780234#3 704509573#1 704509573#2 704509573#3 704509573#4 704509573#5 704509573#6 -448195881#3 -448195881#2 -448195881#1 -39601146 -39607956#0 -741767469#2 -741767469#0 E1"/>
    </vehicle>
    <vehicle id="deliveryrand59" type="deliveryrand_delivery" depart="981.40" departLane="best" departSpeed="max">
        <route edges="-986534474 -1016548268#0 -1028339894 -212710692#1 -212710692#0 191987944 -1016388206#5 -1016388206#3 -1016388206#2 -39607956#7 -39607956#6 -39607956#5 263330574 30912891 549758313"/>
    </vehicle>
    <vehicle id="deliveryrand60" type="deliveryrand_delivery" depart="998.04" departLane="best" departSpeed="max">
        <route edges="-13797599#4 -13797599#3 -13797599#1 1083211596#0 1083211596#1 1083211596#2 1083211597#1 704509573#0 704509573#1 704509573#2 704509573#3 704509573#4 704509573#5 704509573#6 453762947 453762946#0 453762946#1 453762944#0 453762944#1 453762944#2 1017147074#0 39587490#0 -308771430 -39588456 39586894#2 1017125564"/>
    </vehicle>
    <vehicle id="deliveryrand61" type="deliveryrand_delivery" depart="1014.67" departLane="best" departSpeed="max">
        <route edges="-309609103#2 482122892#2 482122892#3 482122892#4 482122892#5 39597960#1 453761206#3 453761206#4 453761206#7 453761206#8 453761206#9 1014684310#0 1014684310#1 1014684310#2 -13797599#1 -1016548268#1 -1016548268#0 -1028339894 -212710692#1 -212710692#0 -212710702 -448867798#3 -448867798#2 -448867798#0"/>
    </vehicle>
    <vehicle id="deliveryrand62" type="deliveryrand_delivery" depart="1031.30" departLane="best" departSpeed="max">
        <route edges="39598863#0 39598863#1 448195881#2 448195881#3 453762947 453762946#0 453762946#1 453762943#0 453762943#1 1014684309 453761206#0 453761206#1 453761206#2 453761206#3 453761206#4 453761206#7 453761206#8 453761206#9 1014684310#0 1014684310#1 1014684310#2 13797599#2 13797599#4"/>
    </vehicle>
    <vehicle id="deliveryrand63" type="deliveryrand_delivery" depart="1047.94" departLane="best" departSpeed="max">
        <route edges="-456405097 39609005#7 39609005#8 39609005#9 39609005#10 -448809958 39608973#1 -1016388206#3 39598458#0 39598232#0 456405100#0 456405100#1 456405100#2 105637466#1 39633790#0 39633790#1 39633790#2 453761206#1 178413106 -482122892#5 -482122892#4 309613709#0 309613709#1"/>
    </vehicle>
    <vehicle id="deliveryrand64" type="deliveryrand_delivery" depart="1064.57" departLane="best" departSpeed="max">
        <route edges="-309387164 39597607#2 39597779#0 39597779#1 1014684310#0 1014684310#1 1014684310#2 -13797599#1 -1016548268#1 -1016548268#0 -1028339894 -212710692#1 -212710692#0 -212710702 -448867798#3 -448867798#2 39609021#0 39609021#1 39609021#2 39609005#3 39609005#4 39609005#5 39609005#6 456405097"/>
    </vehicle>
    <vehicle id="deliveryrand65" type="deliveryrand_delivery" depart="1081.21" departLane="best" departSpeed="max">
        <route edges="-309609103#2 -482122892#1 39598055 306780234#1 306780234#2 306780234#3 704509573#1 704509573#2 704509573#3 704509573#4 704509573#5 704509573#6 -448195881#3 -448195881#2 -448195881#1 -39601146 -39607956#0 -263330686 263330570"/>
    </vehicle>
    <vehicle id="deliveryrand66" type="deliveryrand_delivery" depart="1097.84" departLane="best" departSpeed="max">
        <route edges="263330575 30912891 263330569 263330686 39607956#0 E2 39607956#5 39607956#6 39607956#7 1016388206#2 1016388206#3 1016388206#5 39608490#0 39608490#1 -1028339894 30912883#0 30912883#1 30912883#2 212710696#0 212710696#1"/>
    </vehicle>
    <vehicle id="deliveryrand67" type="deliveryrand_delivery" depart="1114.47" departLane="best" departSpeed="max">
        <route edges="-309613710#1 -309613710#0 -482122892#4 -482122892#3 -482122892#2 -482122892#1 39598055 306780234#1 306780234#2 306780234#3 39598589#0 39598589#1 -39607956#7 -39607956#6 -39607956#5 263330574 30912891 549758313"/>
    </vehicle>
    <vehicle id="deliveryrand68" type="deliveryrand_delivery" depart="1131.11" departLane="best" departSpeed="max">
        <route edges="39598863#0 39598863#1 -448195881#1 -39601146 E2 263330574 914265946"/>
    </vehicle>
    <vehicle id="deliveryrand69" type="deliveryrand_delivery" depart="1147.74" departLane="best" departSpeed="max">
        <route edges="39586894#0 39586894#1 39588456 308771430 39587108#0 39587108#2 306780234#0 306780234#1 306780234#2 453761206#0 453761206#1 453761206#2 453761206#3 453761206#4 453761206#7 453761206#8 453761206#9 1014684310#0 1014684310#1 1014684310#2 13715562 453761207#0 453761207#1 34772371#0"/>
    </vehicle>
    <vehicle id="deliveryrand70" type="deliveryrand_delivery" depart="1164.38" departLane="best" departSpeed="max">
        <route edges="1016548269 1083211596#0 1083211596#1 1083211596#2 1083211597#1 704509573#0 704509573#1 704509573#2 704509573#3 704509573#4 704509573#5 704509573#6 -448195881#3 -448195881#2 -448195881#1 -39601146 -39607956#0 -741767469#2 -741767469#0 E1"/>
    </vehicle>
    <vehicle id="deliveryrand71" type="deliveryrand_delivery" depart="1181.01" departLane="best" departSpeed="max">
        <route edges="39586894#0 39586894#1 39588456 308771430 39587108#0 39587108#2 306780234#0 306780234#1 306780234#2 453761206#0 453761206#1 453761206#2 453761206#3 453761206#4 453761206#7 453761206#8 453761206#9 1014684310#0 1014684310#1 1014684310#2 -13797599#1 -1016548268#1 -1016548268#0 -1028339894 30912883#0 30912883#1 30912883#2 212710696#0 212710696#1"/>
    </vehicle>
    <vehicle id="deliveryrand72" type="deliveryrand_delivery" depart="1197.64" departLane="best" departSpeed="max">