<?xml version="1.0" encoding="UTF-8"?>

<!-- generated on 2023-06-20 21:56:31.913410 by randomTrips.py v1_16_0+0000-94ec4c6cd72
<configuration>
    <begin value="0"/>
    <end value="39600"/>
    <fringe-factor value="2"/>
    <fringe-start-attributes value="departSpeed=&quot;max&quot;"/>
    <insertion-density value="1.0"/>
    <max-distance value="8000.0"/>
    <net-file value="osm.netbaseline.xml.gz"/>
    <remove-loops value="True"/>
    <route-file value="osm.bicycle.rou.xml"/>
    <trip-attributes value="departLane=&quot;best&quot;"/>
    <prefix value="bike"/>
    <validate value="True"/>
    <vclass value="bicycle"/>
    <vehicle-class value="bicycle"/>
</configuration>
-->

<!-- generated on 2023-06-20 21:56:31 by Eclipse SUMO duarouter Version 1.16.0
<configuration xmlns:xsi="http://www.w3.org/2001/XMLSchema-instance" xsi:noNamespaceSchemaLocation="http://sumo.dlr.de/xsd/duarouterConfiguration.xsd">

    <input>
        <net-file value="osm.netbaseline.xml.gz"/>
        <route-files value="trips.trips.xml"/>
    </input>

    <output>
        <output-file value="osm.bicycle.rou.xml"/>
        <alternatives-output value="NUL"/>
    </output>

    <processing>
        <remove-loops value="true"/>
    </processing>

    <time>
        <begin value="0"/>
        <end value="39600"/>
    </time>

    <report>
        <no-warnings value="true"/>
        <ignore-errors value="true"/>
        <no-step-log value="true"/>
    </report>

</configuration>
-->

<routes xmlns:xsi="http://www.w3.org/2001/XMLSchema-instance" xsi:noNamespaceSchemaLocation="http://sumo.dlr.de/xsd/routes_file.xsd">
    <vType id="bike_bicycle" vClass="bicycle" carFollowModel="KraussPS" color="cyan"/>
    <vehicle id="bike0" type="bike_bicycle" depart="0.00" departLane="best">
        <route edges="704509573#5 704509573#6 453762947 453762946#0 453762946#1 453762943#0 453762943#1 1014684309 453761206#0 453761206#1 453761206#2 453761206#3 453761206#4 453761206#7 310786269 -39597607#2 -39597607#1 -1054250665#1 -1054250665#0"/>
    </vehicle>
    <vehicle id="bike1" type="bike_bicycle" depart="66.54" departLane="best" departSpeed="max">
        <route edges="-868082260#1 -868082260#0"/>
    </vehicle>
    <vehicle id="bike2" type="bike_bicycle" depart="133.07" departLane="best">
        <route edges="39609005#9 39609005#10"/>
    </vehicle>
    <vehicle id="bike3" type="bike_bicycle" depart="199.61" departLane="best">
        <route edges="456405100#0 456405100#1 456405100#2 105637466#1 914265953#0 453761206#7 310786269 -39597607#2 309387164 -309387164 39597607#2 39597779#0 -310408556#2"/>
    </vehicle>
    <vehicle id="bike4" type="bike_bicycle" depart="266.14" departLane="best">
        <route edges="263330569 263330686 39607956#0 39601146 448195881#1 448195881#2 448195881#3 453762947 453762946#0 453762946#1 453762943#0 453762943#1 1014684309 453761206#0 453761206#1 453761206#2 453761206#3 453761206#4 453761206#7 310786269 -39597607#2 -39597607#1 -1054250665#1"/>
    </vehicle>
    <vehicle id="bike5" type="bike_bicycle" depart="332.68" departLane="best">
        <route edges="-453762944#1 -453762944#0 453762943#0 453762943#1 1014684309 453761206#0 453761206#1 453761206#2 453761206#3 453761206#4 453761206#7 453761206#8 453761206#9 1014684310#0 1014684310#1"/>
    </vehicle>
    <vehicle id="bike6" type="bike_bicycle" depart="399.21" departLane="best">
        <route edges="-1028339894 -212710692#1 -212710692#0 191987944 39608490#0 -914265951 -39609163#0 39633589 456405100#2 105637466#1 39633790#0 39633790#1 39633790#2 453761206#1 178413106 -482122892#5 -482122892#4"/>
    </vehicle>
    <vehicle id="bike7" type="bike_bicycle" depart="465.75" departLane="best">
        <route edges="39598760#0 39598629#2 -39598745#1 -39598745#0 448195881#1 448195881#2 448195881#3 453762947 453762946#0 453762946#1 453762943#0 453762943#1 1014684309 453761206#0 453761206#1 453761206#2 453761206#3 453761206#4 453761206#7 453761206#8 453761206#9 39590262#0 39590262#1"/>
    </vehicle>
    <vehicle id="bike8" type="bike_bicycle" depart="532.29" departLane="best">
        <route edges="-453762944#3 -453762944#1 -453762944#0 -453762946#1 -453762946#0 -453762947 -448195881#3 39650114#0 39650114#1 39650114#2 39650114#3 39650114#4 39598605#2"/>
    </vehicle>
    <vehicle id="bike9" type="bike_bicycle" depart="598.82" departLane="best">
        <route edges="448809960 448867798#3 212710702 191987944 -1016388206#5 -1016388206#3 -1016388206#2"/>
    </vehicle>
    <vehicle id="bike10" type="bike_bicycle" depart="665.36" departLane="best">
        <route edges="448809958 456405094#0 456405094#1 39609005#0 39609005#3 39609005#4 39609005#5 39609005#6 39609005#7 39609005#8 39609005#9"/>
    </vehicle>
    <vehicle id="bike11" type="bike_bicycle" depart="731.89" departLane="best">
        <route edges="1016192005#1 456405092 39609005#9 39609005#10 -448809958 39608973#1 1016388206#5 39608733 39608754 -448867798#3"/>
    </vehicle>
    <vehicle id="bike12" type="bike_bicycle" depart="798.43" departLane="best">
        <route edges="755512797#1 -13797599#3 -13797599#1 1083211596#0 1083211596#1 914265952 39633589 456405100#2 105637466#1 914265953#0 206544631"/>
    </vehicle>
    <vehicle id="bike13" type="bike_bicycle" depart="864.97" departLane="best" departSpeed="max">
        <route edges="-309387164 39597607#2 39597779#0 39597779#1 39590262#0 39590262#1 1083211596#1 1083211596#2 1083211597#1 704509573#0 704509573#1 704509573#2 704509573#3 704509573#4 704509573#5 704509573#6 453762947 453762946#0 453762946#1 453762944#0 453762944#1 453762944#2 1017147074#0 39587490#0 -308771430 -39588456"/>
    </vehicle>
    <vehicle id="bike14" type="bike_bicycle" depart="931.50" departLane="best">
        <route edges="453761207#0 453761207#1 755512797#0 755512797#1 -13797599#3 -13797599#1 1083211596#0 1083211596#1 1083211596#2 1083211597#1 704509573#0 704509573#1 704509573#2 39598629#0 39598629#1 39598629#2 39598629#3 39598629#4"/>
    </vehicle>
    <vehicle id="bike15" type="bike_bicycle" depart="998.04" departLane="best">
        <route edges="448809960 448867798#3 212710702 191987944 39608490#0 -914265951 -39609163#0 39633589 456405100#2 105637466#1 39633790#0 39633790#1 39633790#2"/>
    </vehicle>
    <vehicle id="bike16" type="bike_bicycle" depart="1064.57" departLane="best" departSpeed="max">
        <route edges="37345793 28785456 212710702 212710692#0 212710692#1 1028339894 1016548268#0 1016548268#1 1083211596#0 1083211596#1 914265952"/>
    </vehicle>
    <vehicle id="bike17" type="bike_bicycle" depart="1131.11" departLane="best">
        <route edges="105637466#1 914265953#0 453761206#7 310786269 -39597607#2"/>
    </vehicle>
    <vehicle id="bike18" type="bike_bicycle" depart="1197.64" departLane="best">
        <route edges="453761206#2 453761206#3 453761206#4 453761206#7 453761206#8 453761206#9 39590262#0 39590262#1 1083211596#1 1083211596#2 1083211597#1 704509573#0 704509573#1 704509573#2 704509573#3 704509573#4 704509573#5 39598714#0 39598714#1 39598760#0"/>
    </vehicle>
    <vehicle id="bike19" type="bike_bicycle" depart="1264.18" departLane="best">
        <route edges="453762944#1 453762944#2 30912941#0 30912941#2 1014684309 306780234#3 39598589#0"/>
    </vehicle>
    <vehicle id="bike20" type="bike_bicycle" depart="1330.72" departLane="best">
        <route edges="39608754 212710702 191987944 39608490#0 39608490#1 -1028339894 -212710692#1"/>
    </vehicle>
    <vehicle id="bike21" type="bike_bicycle" depart="1397.25" departLane="best">
        <route edges="453762946#1 453762943#0 453762943#1 1014684309 453761206#0 453761206#1 453761206#2 453761206#3 453761206#4 453761206#7 310786269 -39597607#2 -39597607#1 -1054250665#1"/>
    </vehicle>
    <vehicle id="bike22" type="bike_bicycle" depart="1463.79" departLane="best" departSpeed="max">
        <route edges="-307088020 482122892#3 482122892#4 482122892#5 39597960#1 453761206#3 453761206#4 453761206#7 453761206#8 453761206#9 1014684310#0 1014684310#1 1014684310#2 -13797599#1 -1016548268#1 -1016548268#0 -1028339894 -212710692#1 -212710692#0 191987944 39608490#0 -914265951"/>
    </vehicle>
    <vehicle id="bike23" type="bike_bicycle" depart="1530.32" departLane="best" departSpeed="max">
        <route edges="-309609103#2 -482122892#1 39598055 306780234#1 39590128#0 -308771431#1 -39588456 39586894#2 1017125564"/>
    </vehicle>
    <vehicle id="bike24" type="bike_bicycle" depart="1596.86" departLane="best">
        <route edges="39598629#4 39607956#6 39607956#7 1016388206#2 1016388206#3 1016388206#5 39608490#0 39608490#1 252525258"/>
    </vehicle>
    <vehicle id="bike25" type="bike_bicycle" depart="1663.39" departLane="best" departSpeed="max">
        <route edges="1054250665#0 1054250665#1 39597607#1 39597607#2 39597779#0 39597779#1 39590262#0 39590262#1 1083211596#1 1083211596#2 1083211597#1 704509573#0 704509573#1 704509573#2 39598629#0 39598629#1 39598629#2 39598629#3 769970145#0"/>
    </vehicle>
    <vehicle id="bike26" type="bike_bicycle" depart="1729.93" departLane="best">
        <route edges="-769970145#1 -769970145#0 39598629#4 39607956#6 39607956#7 1016388206#2 1016388206#3 1016388206#5 39608733 39608754 -448867798#3 -448867798#2 -868082261#2 -868082261#1 -868082261#0 868082260#1"/>
    </vehicle>
    <vehicle id="bike27" type="bike_bicycle" depart="1796.47" departLane="best">
        <route edges="39598745#1 39598629#3 39598629#4 -39607956#5 -E2 39601146 448195881#1 448195881#2 39650114#0 39598714#1"/>
    </vehicle>
    <vehicle id="bike28" type="bike_bicycle" depart="1863.00" departLane="best">
        <route edges="-39598745#1 -39598745#0 448195881#1 448195881#2 448195881#3 453762947 453762946#0 453762946#1 453762943#0 453762943#1 1014684309 453761206#0 453761206#1"/>
    </vehicle>
    <vehicle id="bike29" type="bike_bicycle" depart="1929.54" departLane="best">
        <route edges="39597607#1 39597607#2 39597779#0 39597779#1 39590262#0 39590262#1 1083211596#1 1083211596#2 1083211597#1 704509573#0 704509573#1 704509573#2 39598629#0 39598629#1 39598629#2 39598629#3 39598629#4 -39607956#5 263330574 30912891 263330571"/>
    </vehicle>
    <vehicle id="bike31" type="bike_bicycle" depart="2062.61" departLane="best">
        <route edges="39587108#2 306780234#0 306780234#1 306780234#2 306780234#3 39598589#0 39598589#1 1016388206#2 1016388206#3 39608992#1 448809958 456405094#0 456405094#1 39609005#0 39609005#3 39609005#4"/>
    </vehicle>
    <vehicle id="bike32" type="bike_bicycle" depart="2129.14" departLane="best">
        <route edges="453761206#9 1014684310#0 1014684310#1 1014684310#2 -13797599#1 -1016548268#1 -1016548268#0 -1028339894 -212710692#1 -212710692#0 -212710702 -448867798#3 -448867798#2"/>
    </vehicle>
    <vehicle id="bike33" type="bike_bicycle" depart="2195.68" departLane="best">
        <route edges="453762947 453762946#0 453762946#1 453762943#0 453762943#1 1014684309 453761206#0 453761206#1 453761206#2 453761206#3 453761206#4 453761206#7 310786269 -39597607#2 -39597607#1 -1054250665#1"/>
    </vehicle>
    <vehicle id="bike35" type="bike_bicycle" depart="2328.75" departLane="best">
        <route edges="-453761207#2 -453761207#0 -13715562 -13797599#1 -1016548268#1 -1016548268#0 -1028339894 -212710692#1 -212710692#0 -212710702 -448867798#3 -448867798#2 -868082261#2"/>
    </vehicle>
    <vehicle id="bike36" type="bike_bicycle" depart="2395.29" departLane="best">
        <route edges="456405091 39609005#8 39609005#9 39609005#10 -448809958 39608973#1 1016388206#5 39608490#0 39608490#1 1016548268#0 1016548268#1 13797599#0 13715562"/>
    </vehicle>
    <vehicle id="bike37" type="bike_bicycle" depart="2461.82" departLane="best">
        <route edges="39598760#2 39598760#3 39598458#2 704509573#0 704509573#1 704509573#2 704509573#3 704509573#4 704509573#5 704509573#6 453762947 453762946#0 453762946#1 453762944#0 453762944#1 453762944#2 30912941#0 306780233#0"/>
    </vehicle>
    <vehicle id="bike38" type="bike_bicycle" depart="2528.36" departLane="best">
        <route edges="482122892#3 309613709#0 309613709#1"/>
    </vehicle>
    <vehicle id="bike39" type="bike_bicycle" depart="2594.90" departLane="best">
        <route edges="-769970145#1 -769970145#0 39598629#4 -39607956#5 -E2 39601146 448195881#1 448195881#2 448195881#3 453762947 453762946#0 453762946#1 453762943#0 453762943#1 1014684309"/>
    </vehicle>
    <vehicle id="bike40" type="bike_bicycle" depart="2661.43" departLane="best">
        <route edges="39587490#0 39587108#0 39587108#2 306780234#0 306780234#1 306780234#2 306780234#3 39598589#0 39598589#1 1016388206#2"/>
    </vehicle>
    <vehicle id="bike41" type="bike_bicycle" depart="2727.97" departLane="best">
        <route edges="39597607#2 39597779#0 39597779#1 39590262#0 39590262#1 1083211596#1 1083211596#2 1083211597#1 704509573#0 704509573#1 704509573#2"/>
    </vehicle>
    <vehicle id="bike42" type="bike_bicycle" depart="2794.50" departLane="best">
        <route edges="-13797599#3 -13797599#1 -1016548268#1 -1016548268#0 -1028339894 -212710692#1 -212710692#0 -212710702 -448867798#3 -448867798#2 -868082261#2 -868082261#1 -868082261#0"/>
    </vehicle>
    <vehicle id="bike43" type="bike_bicycle" depart="2861.04" departLane="best">
        <route edges="E3 1014684308.33 453762943#0 453762943#1 1014684309 453761206#0 453761206#1 453761206#2 453761206#3 453761206#4 453761206#7 310786269"/>
    </vehicle>
    <vehicle id="bike44" type="bike_bicycle" depart="2927.57" departLane="best" departSpeed="max">
        <route edges="-309387164 39597607#2 39597779#0 39597779#1 1014684310#0 1014684310#1 1014684310#2 -13797599#1 -1016548268#1 -1016548268#0 -1028339894 30912883#0 30912883#1 30912883#2 212710696#0"/>
    </vehicle>
    <vehicle id="bike45" type="bike_bicycle" depart="2994.11" departLane="best">
        <route edges="-309613709#0 -482122892#3 -482122892#2 -482122892#1 39598055 306780234#1 306780234#2 306780234#3 39598589#0 39598760#3"/>
    </vehicle>
    <vehicle id="bike46" type="bike_bicycle" depart="3060.65" departLane="best">
        <route edges="39650208 704509573#4 704509573#5 704509573#6 453762947 453762946#0 453762946#1 453762943#0 453762943#1 1014684309 453761206#0 453761206#1 453761206#2 453761206#3 453761206#4 453761206#7 453761206#8 453761206#9 1014684310#0 1014684310#1 1014684310#2 -13797599#1 -1016548268#1 -1016548268#0 -1028339894 30912883#0"/>
    </vehicle>
    <vehicle id="bike47" type="bike_bicycle" depart="3127.18" departLane="best">
        <route edges="-212710692#1 -212710692#0 191987944 -1016388206#5 -1016388206#3 -1016388206#2 -39607956#7 -39607956#6 -39607956#5 263330574 30912891 263330571"/>
    </vehicle>
    <vehicle id="bike48" type="bike_bicycle" depart="3193.72" departLane="best">
        <route edges="39607956#0 39601146 448195881#1 448195881#2 448195881#3 453762947 453762946#0 453762946#1 453762944#0 453762944#1 453762944#2 1017147074#0 39587490#0 39587108#0"/>
    </vehicle>
    <vehicle id="bike49" type="bike_bicycle" depart="3260.25" departLane="best">
        <route edges="868082261#2 448867798#2 448867798#3 212710702 191987944 -1016388206#5 -1016388206#3 39598458#0 39598232#0 456405100#0 456405100#1"/>
    </vehicle>
    <vehicle id="bike50" type="bike_bicycle" depart="3326.79" departLane="best">
        <route edges="-1016388206#3 39598458#0 39598232#0 456405100#0 456405100#1 456405100#2 105637466#1 39633790#0"/>
    </vehicle>
    <vehicle id="bike53" type="bike_bicycle" depart="3526.40" departLane="best" departSpeed="max">
        <route edges="-309613709#1 309613712#2 -482122892#1 39598055 306780234#1 306780234#2 306780234#3 704509573#1 704509573#2 704509573#3 704509573#4 704509573#5 704509573#6 453762947 453762946#0 453762946#1 453762944#0 453762944#1 453762944#2 30912941#0"/>
    </vehicle>
    <vehicle id="bike54" type="bike_bicycle" depart="3592.93" departLane="best" departSpeed="max">
        <route edges="306780458#0 755512797#0 755512797#1 -13797599#3 -13797599#1 -1016548268#1 -1016548268#0 -1028339894 -212710692#1 -212710692#0 -212710702 -448867798#3 -448867798#2 -868082261#2 -868082261#1 -868082261#0 868082296"/>
    </vehicle>
    <vehicle id="bike55" type="bike_bicycle" depart="3659.47" departLane="best">
        <route edges="456405091 39609005#8 39609005#9 39609005#10 -448809958 39608973#1 -1016388206#3 -1016388206#2"/>
    </vehicle>
    <vehicle id="bike56" type="bike_bicycle" depart="3726.00" departLane="best">
        <route edges="309613712#1 -309613709#0 -482122892#3 -482122892#2 -482122892#1 39598055 306780234#1 306780234#2 306780234#3 704509573#1 704509573#2 704509573#3 704509573#4 704509573#5 704509573#6 453762947"/>
    </vehicle>
    <vehicle id="bike57" type="bike_bicycle" depart="3792.54" departLane="best">
        <route edges="482122892#3 309613709#0 309613712#2 482122892#2"/>
    </vehicle>
    <vehicle id="bike59" type="bike_bicycle" depart="3925.61" departLane="best">
        <route edges="39598589#0 39598589#1 1016388206#2 1016388206#3 1016388206#5 39608733 39608754 -448867798#3 -448867798#2"/>
    </vehicle>
    <vehicle id="bike60" type="bike_bicycle" depart="3992.15" departLane="best">
        <route edges="39633790#1 39633790#2 453761206#1 178413106 -482122892#5 -482122892#4 -482122892#3 -482122892#2 -482122892#1 39598055 306780234#1 39590128#0"/>
    </vehicle>
    <vehicle id="bike61" type="bike_bicycle" depart="4058.68" departLane="best">
        <route edges="39650114#2 39650208 704509573#4 704509573#5 704509573#6 453762947 453762946#0 453762946#1 453762944#0 453762944#1 453762944#2 1017147074#0 39587490#0 39587108#0 39587108#2"/>
    </vehicle>
    <vehicle id="bike62" type="bike_bicycle" depart="4125.22" departLane="best">
        <route edges="-1016192005#0 39608973#1 1016388206#5 39608490#0 39608490#1 1016548268#0 1016548268#1 13797599#0 13797599#2 13797599#4"/>
    </vehicle>
    <vehicle id="bike63" type="bike_bicycle" depart="4191.75" departLane="best">
        <route edges="1016548268#1 1083211596#0 1083211596#1 1083211596#2 1083211597#1 704509573#0 704509573#1 704509573#2 39598629#0 39598629#1 39598629#2 39598629#3 769970145#0 769970145#1"/>
    </vehicle>
    <vehicle id="bike64" type="bike_bicycle" depart="4258.29" departLane="best">
        <route edges="456405092 39609005#9 39609005#10 -448809958 39608973#1 -1016388206#3 39598458#0 39598458#1 39598458#2 704509573#0 704509573#1 704509573#2 704509573#3 704509573#4 704509573#5 704509573#6 453762947"/>
    </vehicle>
    <vehicle id="bike65" type="bike_bicycle" depart="4324.83" departLane="best" departSpeed="max">
        <route edges="-986534474 1016548268#1 1083211596#0 1083211596#1 1083211596#2 1083211597#1 704509573#0 704509573#1 704509573#2 704509573#3 704509573#4 704509573#5 704509573#6 453762947 453762946#0 453762946#1 453762944#0 453762944#1 453762944#2 1017147074#0 39587490#0 -308771430"/>
    </vehicle>
    <vehicle id="bike66" type="bike_bicycle" depart="4391.36" departLane="best">
        <route edges="456405092 39609005#9 39609005#10 -448809958 39608973#1 1016388206#5 39608490#0 39608490#1 -1028339894 -212710692#1 868082263"/>
    </vehicle>
    <vehicle id="bike67" type="bike_bicycle" depart="4457.90" departLane="best">
        <route edges="-308771430 308771431#1 39587108#2 306780234#0 306780234#1 306780234#2 453761206#0 453761206#1 178413106 -482122892#5 309613710#0 309613712#1"/>
    </vehicle>
    <vehicle id="bike68" type="bike_bicycle" depart="4524.43" departLane="best" departSpeed="max">
        <route edges="-212710696#1 -212710696#0 28785456 212710702 191987944 -1016388206#5 -1016388206#3 -1016388206#2 -39607956#7 -39607956#6 -39607956#5 -E2 39601146 448195881#1 448195881#2"/>
    </vehicle>
    <vehicle id="bike69" type="bike_bicycle" depart="4590.97" departLane="best">
        <route edges="39633790#2 453761206#1 178413106 -482122892#5 -482122892#4 -482122892#3 -482122892#2 -482122892#1 39598055 306780234#1 306780234#2 306780234#3 39598589#0 39598589#1 -39607956#7"/>
    </vehicle>
    <vehicle id="bike70" type="bike_bicycle" depart="4657.50" departLane="best" departSpeed="max">
        <route edges="30912884 30912883#2 28785456 212710702 191987944 39608490#0 -914265951 -39609163#0 39633589 456405100#2 105637466#1 914265953#0 453761206#7 310786269 -39597607#2 -39597607#1"/>
    </vehicle>
    <vehicle id="bike71" type="bike_bicycle" depart="4724.04" departLane="best">
        <route edges="-769970145#1 -769970145#0 39598629#4 39607956#6 39607956#7 1016388206#2 39598458#0 39598232#0 456405100#0 456405100#1 456405100#2 105637466#1 39633790#0 39633790#1 39633790#2 453761206#1 178413106 -482122892#5 -482122892#4 -482122892#3"/>
    </vehicle>
    <vehicle id="bike72" type="bike_bicycle" depart="4790.58" departLane="best">
        <route edges="263330569 263330686 39607956#0 39601146 39598745#0 39598745#1 39598629#3 769970145#0 -769970145#2"/>
    </vehicle>
    <vehicle id="bike73" type="bike_bicycle" depart="4857.11" departLane="best" departSpeed="max">
        <route edges="39586894#0 39586894#1 39588456 308771431#1 39587108#2 306780234#0 306780234#1 306780234#2 453761206#0 453761206#1 453761206#2 453761206#3 39633834"/>
    </vehicle>
    <vehicle id="bike74" type="bike_bicycle" depart="4923.65" departLane="best">
        <route edges="-448809958 39608973#1 -1016388206#3 39598458#0 39598232#0 456405100#0 456405100#1 456405100#2 1083211597#1"/>
    </vehicle>
    <vehicle id="bike75" type="bike_bicycle" depart="4990.18" departLane="best">
        <route edges="E2 39607956#5"/>
    </vehicle>
    <vehicle id="bike76" type="bike_bicycle" depart="5056.72" departLane="best">
        <route edges="28785456 212710702 212710692#0 212710692#1 1028339894 1016548268#0 1016548268#1 13797599#0 13715562 453761207#0 453761207#1 34772371#0"/>
    </vehicle>
    <vehicle id="bike77" type="bike_bicycle" depart="5123.25" departLane="best" departSpeed="max">
        <route edges="-309613710#1 -309613712#0 -309613711#0 39597960#1 453761206#3 453761206#4 453761206#7 453761206#8 453761206#9 1014684310#0 1014684310#1 1014684310#2 -13797599#1 -1016548268#1 -1016548268#0 -1028339894 -212710692#1 -212710692#0 -212710702 -448867798#3 -448867798#2 -868082261#2 -868082261#1"/>
    </vehicle>
    <vehicle id="bike78" type="bike_bicycle" depart="5189.79" departLane="best">
        <route edges="-448809958 39608973#1 -1016388206#3 -1016388206#2 -39607956#7 39598605#0 39598605#1 39598605#2"/>
    </vehicle>
    <vehicle id="bike79" type="bike_bicycle" depart="5256.33" departLane="best">
        <route edges="-453762947 -448195881#3 -448195881#2 -448195881#1 -39601146 E2 39607956#5 39607956#6 39607956#7 1016388206#2 1016388206#3 1016388206#5 39608733 39608754 -448867798#3 -448867798#2 -868082261#2 -868082261#1 -868082261#0"/>
    </vehicle>
    <vehicle id="bike80" type="bike_bicycle" depart="5322.86" departLane="best" departSpeed="max">
        <route edges="-212710696#1 -212710696#0 28785456 212710702 191987944 -1016388206#5 -1016388206#3 -1016388206#2 -39607956#7 -39607956#6 -39607956#5 -E2 -39607956#0 -741767469#2 39598786#0"/>
    </vehicle>
    <vehicle id="bike81" type="bike_bicycle" depart="5389.40" departLane="best">
        <route edges="-453762947 -448195881#3 39650114#0 39650114#1 39650114#2 39650208 704509573#4"/>
    </vehicle>
    <vehicle id="bike82" type="bike_bicycle" depart="5455.93" departLane="best">
        <route edges="453762944#0 39631697 51228956#1 453762943#1 1014684309 453761206#0 453761206#1 178413106 309613711#0 309613712#0"/>
    </vehicle>
    <vehicle id="bike83" type="bike_bicycle" depart="5522.47" departLane="best" departSpeed="max">
        <route edges="-456405097 39609005#7 39609005#8 39609005#9 39609005#10 -448809958 39608973#1"/>
    </vehicle>
    <vehicle id="bike84" type="bike_bicycle" depart="5589.01" departLane="best">
        <route edges="-453762944#0 -453762946#1 -453762946#0 -453762947 -448195881#3 -448195881#2 -448195881#1 -39601146 E2 39607956#5 39607956#6 39607956#7 1016388206#2 1016388206#3 1016388206#5 39608490#0 -914265951 -39609163#0"/>
    </vehicle>
    <vehicle id="bike85" type="bike_bicycle" depart="5655.54" departLane="best">
        <route edges="704509573#2 39598629#0 39598629#1 39598629#2 39598629#3 39598629#4 39607956#6 39607956#7 1016388206#2 39598458#0 39598458#1"/>
    </vehicle>
    <vehicle id="bike86" type="bike_bicycle" depart="5722.08" departLane="best">
        <route edges="30912883#2 28785456 212710702 191987944 39608490#0 -914265951 -39609163#0 39633589 456405100#2 105637466#1 39633790#0 39633790#1 39633790#2 453761206#1"/>
    </vehicle>
    <vehicle id="bike87" type="bike_bicycle" depart="5788.61" departLane="best">
        <route edges="448809960 448867798#3 212710702 191987944 39608490#0 -914265951 -39609163#0 39633589 456405100#2 105637466#1 39633790#0 39633790#1 39633790#2 453761206#1 178413106 -482122892#5 -482122892#4 -482122892#3 -482122892#2 -482122892#1"/>
    </vehicle>
    <vehicle id="bike88" type="bike_bicycle" depart="5855.15" departLane="best" departSpeed="max">
        <route edges="-309609103#2 -482122892#1 39598055 306780234#1 306780234#2 306780234#3 704509573#1 704509573#2 39598629#0 39598629#1 39598629#2 39598629#3 39598629#4 -39607956#5 263330574 30912891"/>
    </vehicle>
    <vehicle id="bike89" type="bike_bicycle" depart="5921.68" departLane="best">
        <route edges="263330569 263330686 39607956#0 39601146 448195881#1 448195881#2 448195881#3 453762947 453762946#0 453762946#1 453762943#0 453762943#1 1014684309 453761206#0 453761206#1 178413106 -482122892#5 309613710#0"/>
    </vehicle>
    <vehicle id="bike90" type="bike_bicycle" depart="5988.22" departLane="best">
        <route edges="39609005#7 39609005#8 39609005#9 39609005#10 -448809958 39608973#1"/>
    </vehicle>
    <vehicle id="bike91" type="bike_bicycle" depart="6054.76" departLane="best">
        <route edges="914265952 39633589 456405100#2 105637466#1 914265953#0 453761206#7 310786269 -39597607#2 -39597607#1 -39597607#0"/>
    </vehicle>
    <vehicle id="bike92" type="bike_bicycle" depart="6121.29" departLane="best">
        <route edges="178413106 39597960#1 453761206#3 453761206#4 453761206#7 453761206#8 453761206#9 1014684310#0 1014684310#1 1014684310#2 -13797599#1 -1016548268#1 -1016548268#0 -1028339894 30912883#0 30912883#1 30912883#2 28785456 212710702 212710692#0"/>
    </vehicle>
    <vehicle id="bike93" type="bike_bicycle" depart="6187.83" departLane="best">
        <route edges="453762944#1 453762944#2 30912941#0 30912941#2 1014684309 453761206#0 453761206#1 453761206#2 453761206#3 453761206#4 453761206#7 453761206#8 453761206#9 1014684310#0"/>
    </vehicle>
    <vehicle id="bike94" type="bike_bicycle" depart="6254.36" departLane="best">
        <route edges="448195881#1 448195881#2 448195881#3 453762947 453762946#0 453762946#1 453762943#0 453762943#1 1014684309 453761206#0 453761206#1 178413106 -482122892#5 -482122892#4 -482122892#3 -482122892#2 309609103#2"/>
    </vehicle>
    <vehicle id="bike95" type="bike_bicycle" depart="6320.90" departLane="best">
        <route edges="263330569 263330686 39607956#0 39601146 448195881#1 448195881#2 448195881#3 453762947 453762946#0 453762946#1 453762944#0 453762944#1 453762944#2 1017147074#0 39587490#0 -308771430 -39588456 39586894#2 1017125564"/>
    </vehicle>
    <vehicle id="bike96" type="bike_bicycle" depart="6387.43" departLane="best">
        <route edges="482122892#4 482122892#5 39597960#1 453761206#3 453761206#4 453761206#7 453761206#8 453761206#9 1014684310#0 1014684310#1 1014684310#2 13715562 453761207#0 453761207#1 755512797#0 755512797#1"/>
    </vehicle>
    <vehicle id="bike97" type="bike_bicycle" depart="6453.97" departLane="best">
        <route edges="306780234#0 306780234#1 306780234#2 306780234#3 39598589#0 39598589#1 1016388206#2 39598458#0 39598232#0 456405100#0 456405100#1"/>
    </vehicle>
    <vehicle id="bike98" type="bike_bicycle" depart="6520.51" departLane="best">
        <route edges="39587067 39587108#0 39587108#2 306780234#0 306780234#1 306780234#2 453761206#0 453761206#1 453761206#2 453761206#3 453761206#4 453761206#7 453761206#8 453761206#9 1014684310#0 1014684310#1 1014684310#2 -13797599#1 -1016548268#1 -1016548268#0 -1028339894 -212710692#1 -212710692#0 -212710702"/>
    </vehicle>
    <vehicle id="bike99" type="bike_bicycle" depart="6587.04" departLane="best">
        <route edges="E3 1014684308.33 -453762946#1 -453762946#0 -453762947 -448195881#3 -448195881#2 -448195881#1 -39601146 E2 39607956#5 39607956#6 39607956#7 1016388206#2 1016388206#3 39608992#1 1016192005#0 1016192005#1 456405092"/>
    </vehicle>
    <vehicle id="bike100" type="bike_bicycle" depart="6653.58" departLane="best">
        <route edges="868082261#1 868082261#2 448867798#2 448867798#3 212710702 191987944 -1016388206#5 -1016388206#3 -1016388206#2 -39607956#7 -39607956#6 -39607956#5 -E2 39601146 39598745#0 39598745#1 39598629#3 769970145#0"/>
    </vehicle>
    <vehicle id="bike101" type="bike_bicycle" depart="6720.11" departLane="best">
        <route edges="453761207#1 755512797#0 755512797#1 -13797599#3 -13797599#1 1083211596#0 1083211596#1 1083211596#2 1083211597#1 704509573#0 704509573#1 704509573#2 704509573#3 704509573#4 704509573#5 704509573#6 453762947 453762946#0 453762946#1 453762944#0 453762944#1"/>
    </vehicle>
    <vehicle id="bike102" type="bike_bicycle" depart="6786.65" departLane="best">
        <route edges="30912941#2 1014684309 306780234#3 704509573#1 704509573#2 39598629#0 39598629#1 39598629#2 39598629#3 769970145#0 -769970145#2"/>
    </vehicle>
    <vehicle id="bike103" type="bike_bicycle" depart="6853.18" departLane="best">