<?xml version="1.0" encoding="UTF-8"?>

<!-- generated on 2023-06-20 21:56:36.307641 by randomTrips.py v1_16_0+0000-94ec4c6cd72
<configuration>
    <allow-fringe.min-length value="1000.0"/>
    <begin value="0"/>
    <end value="39600"/>
    <fringe-factor value="5"/>
    <fringe-start-attributes value="departSpeed=&quot;max&quot;"/>
    <insertion-density value="23.0"/>
    <lanes value="True"/>
    <min-distance.fringe value="10.0"/>
    <min-distance value="300.0"/>
    <net-file value="osm.netbaseline.xml.gz"/>
    <remove-loops value="True"/>
    <route-file value="osm.passenger.rou.xml"/>
    <trip-attributes value="departLane=&quot;best&quot;"/>
    <prefix value="veh"/>
    <validate value="True"/>
    <vehicle-class value="passenger"/>
</configuration>
-->

<!-- generated on 2023-06-20 21:56:35 by Eclipse SUMO duarouter Version 1.16.0
<configuration xmlns:xsi="http://www.w3.org/2001/XMLSchema-instance" xsi:noNamespaceSchemaLocation="http://sumo.dlr.de/xsd/duarouterConfiguration.xsd">

    <input>
        <net-file value="osm.netbaseline.xml.gz"/>
        <route-files value="trips.trips.xml"/>
    </input>

    <output>
        <output-file value="osm.passenger.rou.xml"/>
        <alternatives-output value="NUL"/>
    </output>

    <processing>
        <remove-loops value="true"/>
    </processing>

    <time>
        <begin value="0"/>
        <end value="39600"/>
    </time>

    <report>
        <no-warnings value="true"/>
        <ignore-errors value="true"/>
        <no-step-log value="true"/>
    </report>

</configuration>
-->

<routes xmlns:xsi="http://www.w3.org/2001/XMLSchema-instance" xsi:noNamespaceSchemaLocation="http://sumo.dlr.de/xsd/routes_file.xsd">
    <vType id="veh_passenger" vClass="passenger" carFollowModel="KraussPS" color="yellow"/>
    <vehicle id="veh0" type="veh_passenger" depart="0.00" departLane="best" departSpeed="max">
        <route edges="39598863#0 39598863#1 448195881#2 448195881#3 453762947 453762946#0 453762946#1 453762943#0 453762943#1 1014684309 453761206#0 453761206#1 453761206#2 453761206#3 453761206#4 453761206#7 453761206#8 453761206#9 1014684310#0 1014684310#1 1014684310#2 -13797599#1"/>
    </vehicle>
    <vehicle id="veh1" type="veh_passenger" depart="3.02" departLane="best">
        <route edges="1014684309 453761206#0 453761206#1 453761206#2 453761206#3 453761206#4 453761206#7 453761206#8 453761206#9 1014684310#0"/>
    </vehicle>
    <vehicle id="veh2" type="veh_passenger" depart="6.05" departLane="best">
        <route edges="453761206#8 453761206#9 39590262#0 39590262#1 1083211596#1 1083211596#2 1083211597#1 704509573#0 704509573#1 704509573#2 704509573#3 704509573#4 704509573#5 704509573#6 -448195881#3 39650114#0"/>
    </vehicle>
    <vehicle id="veh3" type="veh_passenger" depart="9.07" departLane="best" departSpeed="max">
        <route edges="482122892#0 39598055 306780234#1 306780234#2 306780234#3 704509573#1 704509573#2 39598629#0 39598629#1 39598629#2 -39598745#1"/>
    </vehicle>
    <vehicle id="veh4" type="veh_passenger" depart="12.10" departLane="best">
        <route edges="306780234#1 306780234#2 453761206#0 453761206#1 453761206#2 453761206#3 453761206#4 453761206#7 453761206#8 453761206#9 1014684310#0 1014684310#1 1014684310#2 -13797599#1 -1016548268#1 -1016548268#0 -1028339894 -212710692#1 -212710692#0"/>
    </vehicle>
    <vehicle id="veh5" type="veh_passenger" depart="15.12" departLane="best" departSpeed="max">
        <route edges="-868082260#1 -868082260#0 868082261#1 868082261#2 448867798#2 448867798#3 212710702 212710692#0 212710692#1 1028339894 1016548268#0 1016548268#1 1083211596#0 1083211596#1"/>
    </vehicle>
    <vehicle id="veh6" type="veh_passenger" depart="18.14" departLane="best" departSpeed="max">
        <route edges="-1017147074#0 30912941#0 30912941#2 1014684309 453761206#0 453761206#1 453761206#2 453761206#3 453761206#4 453761206#7 453761206#8 453761206#9 1014684310#0 1014684310#1 1014684310#2 -13797599#1 -1016548268#1 -1016548268#0 -1028339894 -212710692#1 -212710692#0 -212710702 -448867798#3 -448867798#2 -868082261#2"/>
    </vehicle>
    <vehicle id="veh7" type="veh_passenger" depart="21.17" departLane="best" departSpeed="max">
        <route edges="39598863#0 39598863#1 448195881#2 39650114#0 39598714#1 39598760#0 39598760#1 39598605#1"/>
    </vehicle>
    <vehicle id="veh9" type="veh_passenger" depart="27.22" departLane="best">
        <route edges="453761206#4 453761206#7 453761206#8 453761206#9 1014684310#0 1014684310#1 1014684310#2 -13797599#1 -1016548268#1 -1016548268#0 -1028339894 -212710692#1 -212710692#0 191987944 -1016388206#5 -1016388206#3 -1016388206#2"/>
    </vehicle>
    <vehicle id="veh10" type="veh_passenger" depart="30.24" departLane="best">
        <route edges="453761206#3 453761206#4 453761206#7 453761206#8 453761206#9 39590262#0 39590262#1 1083211596#1 1083211596#2 1083211597#1 704509573#0 704509573#1 704509573#2 39598629#0 39598629#1 39598629#2 -39598745#1 -39598745#0 448195881#1 448195881#2"/>
    </vehicle>
    <vehicle id="veh11" type="veh_passenger" depart="33.26" departLane="best">
        <route edges="-1028339894 -212710692#1 -212710692#0 -212710702 -448867798#3 -448867798#2 39609021#0 39609021#1 39609021#2 39609005#3 39609005#4 39609005#5 39609005#6 39609005#7 39609005#8 -456405092"/>
    </vehicle>
    <vehicle id="veh12" type="veh_passenger" depart="36.29" departLane="best">
        <route edges="704509573#6 453762947 453762946#0 453762946#1 453762943#0 453762943#1 1014684309 453761206#0 453761206#1 453761206#2 453761206#3 453761206#4 453761206#7 453761206#8 453761206#9 1014684310#0 1014684310#1 1014684310#2 -13797599#1 -1016548268#1 -1016548268#0 -1028339894 30912883#0 30912883#1 30912883#2 212710696#0 212710696#1"/>
    </vehicle>
    <vehicle id="veh13" type="veh_passenger" depart="39.31" departLane="best">
        <route edges="-308771430 308771431#1 39587108#2 306780234#0 306780234#1 306780234#2 306780234#3 39598589#0 39598589#1 -39607956#7 -39607956#6"/>
    </vehicle>
    <vehicle id="veh14" type="veh_passenger" depart="42.34" departLane="best">
        <route edges="453762943#1 1014684309 306780234#3 704509573#1 704509573#2 39598629#0 39598629#1 39598629#2 39598629#3 39598629#4 39607956#6 39607956#7"/>
    </vehicle>
    <vehicle id="veh15" type="veh_passenger" depart="45.36" departLane="best">
        <route edges="39587108#2 306780234#0 306780234#1 306780234#2 306780234#3 39598589#0 39598589#1 -39607956#7 -39607956#6 -39607956#5 263330574 914265946"/>
    </vehicle>
    <vehicle id="veh16" type="veh_passenger" depart="48.39" departLane="best">
        <route edges="191987944 -1016388206#5 -1016388206#3 39598458#0 39598458#1 39598458#2 704509573#0 704509573#1 704509573#2 39598629#0 39598629#1"/>
    </vehicle>
    <vehicle id="veh17" type="veh_passenger" depart="51.41" departLane="best">
        <route edges="453761207#0 453761207#1 755512797#0 755512797#1 -13797599#3 -13797599#1 -1016548268#1 -1016548268#0 -1028339894 -212710692#1 -212710692#0 191987944 -1016388206#5 39608992#1"/>
    </vehicle>
    <vehicle id="veh18" type="veh_passenger" depart="54.43" departLane="best">
        <route edges="453762946#1 453762943#0 453762943#1 1014684309 306780234#3 704509573#1 704509573#2 39598629#0 39598629#1 39598760#1 39598760#2"/>
    </vehicle>
    <vehicle id="veh19" type="veh_passenger" depart="57.46" departLane="best">
        <route edges="39609005#8 39609005#9 39609005#10 -448809958 39608973#1 -1016388206#3 -1016388206#2 -39607956#7 -39607956#6 -39607956#5 -E2 39601146 448195881#1 448195881#2 448195881#3 453762947 453762946#0 453762946#1 453762944#0 453762944#1 453762944#2 1017147074#0 39587490#0 39587108#0 -308771431#1"/>
    </vehicle>
    <vehicle id="veh20" type="veh_passenger" depart="60.48" departLane="best">
        <route edges="868082261#1 868082261#2 448867798#2 448867798#3 212710702 212710692#0 212710692#1 1028339894 1016548268#0 1016548268#1 13797599#0"/>
    </vehicle>
    <vehicle id="veh21" type="veh_passenger" depart="63.51" departLane="best" departSpeed="max">
        <route edges="-212710696#1 -212710696#0 28785456 212710702 212710692#0 212710692#1 1028339894 1016548268#0 1016548268#1 1083211596#0 1083211596#1 1083211596#2 105637466#1 914265953#0 453761206#7 453761206#8 453761206#9 1014684310#0 1014684310#1 1014684310#2"/>
    </vehicle>
    <vehicle id="veh22" type="veh_passenger" depart="66.53" departLane="best" departSpeed="max">
        <route edges="-34772371#3 755512797#0 755512797#1 -13797599#3 -13797599#1 1083211596#0 1083211596#1 1083211596#2"/>
    </vehicle>
    <vehicle id="veh24" type="veh_passenger" depart="72.58" departLane="best" departSpeed="max">
        <route edges="1014684308 1014684308.33 453762943#0 453762943#1 1014684309 453761206#0 453761206#1 453761206#2 453761206#3 453761206#4 453761206#7 453761206#8 453761206#9 1014684310#0 1014684310#1 1014684310#2 -13797599#1 -1016548268#1 -1016548268#0 -1028339894 -212710692#1 -212710692#0 -212710702 -448867798#3 -448867798#2 -868082261#2 868082273"/>
    </vehicle>
    <vehicle id="veh25" type="veh_passenger" depart="75.60" departLane="best" departSpeed="max">
        <route edges="39598863#0 39598863#1 -448195881#1 -39601146 E2 39607956#5 39607956#6 39607956#7 1016388206#2 1016388206#3 1016388206#5 39608490#0 39608490#1"/>
    </vehicle>
    <vehicle id="veh26" type="veh_passenger" depart="78.63" departLane="best">
        <route edges="453762946#1 453762943#0 453762943#1 1014684309 453761206#0 453761206#1 453761206#2"/>
    </vehicle>
    <vehicle id="veh27" type="veh_passenger" depart="81.65" departLane="best">
        <route edges="-453762944#1 -453762944#0 -453762946#1 -453762946#0 -453762947 -448195881#3 -448195881#2 -448195881#1 -39601146 E2 263330574 30912891 263330569"/>
    </vehicle>
    <vehicle id="veh28" type="veh_passenger" depart="84.67" departLane="best" departSpeed="max">
        <route edges="E0 741767469#0 741767469#2 39607956#0 E2 39607956#5 39607956#6 39607956#7 1016388206#2 1016388206#3 39608992#1 448809958 456405094#0 456405094#1 39609005#0 39609005#3 39609005#4 39609005#5 39609005#6 39609005#7"/>
    </vehicle>
    <vehicle id="veh29" type="veh_passenger" depart="87.70" departLane="best" departSpeed="max">
        <route edges="39597607#0 39597607#1 39597607#2 39597779#0 39597779#1 39590262#0 39590262#1 1083211596#1 1083211596#2 1083211597#1 704509573#0 704509573#1 704509573#2 704509573#3 704509573#4 39650163 39650114#2 39650114#3"/>
    </vehicle>
    <vehicle id="veh30" type="veh_passenger" depart="90.72" departLane="best">
        <route edges="868082261#1 868082261#2 448867798#2 448867798#3 212710702 191987944 39608490#0 39608490#1 -1028339894 -212710692#1"/>
    </vehicle>
    <vehicle id="veh31" type="veh_passenger" depart="93.75" departLane="best">
        <route edges="-868082260#0 868082261#1 868082261#2 448867798#2 448867798#3 212710702 212710692#0 212710692#1 1028339894 1016548268#0 1016548268#1 1083211596#0 1083211596#1 1083211596#2 1083211597#1 704509573#0 704509573#1 704509573#2 704509573#3 704509573#4 704509573#5 704509573#6 910431582"/>
    </vehicle>
    <vehicle id="veh32" type="veh_passenger" depart="96.77" departLane="best">
        <route edges="39609005#10 -448809958 39608973#1 -1016388206#3 39598458#0 39598232#0 456405100#0 456405100#1 456405100#2 105637466#1 914265953#0 206544631"/>
    </vehicle>
    <vehicle id="veh33" type="veh_passenger" depart="99.79" departLane="best">
        <route edges="39598880 39598786#1 -39601146 E2 263330574 30912891 263330571"/>
    </vehicle>
    <vehicle id="veh34" type="veh_passenger" depart="102.82" departLane="best" departSpeed="max">
        <route edges="1014684308 1014684308.33 -453762946#1 -453762946#0 -453762947 -448195881#3 -448195881#2 -448195881#1 -39601146 E2 39607956#5 39607956#6 39607956#7 1016388206#2 1016388206#3"/>
    </vehicle>
    <vehicle id="veh35" type="veh_passenger" depart="105.84" departLane="best" departSpeed="max">
        <route edges="39597607#0 39597607#1 39597607#2 39597779#0 39597779#1 39590262#0 39590262#1 1083211596#1 1083211596#2 105637466#1"/>
    </vehicle>
    <vehicle id="veh36" type="veh_passenger" depart="108.87" departLane="best">
        <route edges="39598458#1 39598458#2 704509573#0 704509573#1 704509573#2 704509573#3 704509573#4 704509573#5"/>
    </vehicle>
    <vehicle id="veh37" type="veh_passenger" depart="111.89" departLane="best" departSpeed="max">
        <route edges="263330575 30912891 263330569 263330686 39607956#0 39601146 448195881#1 448195881#2 448195881#3 453762947 453762946#0 453762946#1 453762943#0 453762943#1 1014684309"/>
    </vehicle>
    <vehicle id="veh38" type="veh_passenger" depart="114.92" departLane="best">
        <route edges="E3 1014684308.33 453762943#0 453762943#1 1014684309 453761206#0 453761206#1 453761206#2 453761206#3 453761206#4 453761206#7 310786269 -39597607#2 -39597607#1"/>
    </vehicle>
    <vehicle id="veh39" type="veh_passenger" depart="117.94" departLane="best">
        <route edges="263330686 39607956#0 39601146 448195881#1 448195881#2 448195881#3 453762947 453762946#0 453762946#1 453762944#0 453762944#1 453762944#2 1017147074#0 39587490#0 39587108#0 -308771431#1"/>
    </vehicle>
    <vehicle id="veh40" type="veh_passenger" depart="120.96" departLane="best" departSpeed="max">
        <route edges="-34772371#3 755512797#0 755512797#1 -13797599#3 -13797599#1 -1016548268#1 -1016548268#0 -1028339894 -212710692#1 -212710692#0 -212710702 -448867798#3 -448867798#2 39609021#0 39609021#1 39609021#2 39609005#3"/>
    </vehicle>
    <vehicle id="veh41" type="veh_passenger" depart="123.99" departLane="best" departSpeed="max">
        <route edges="-206544631 453761206#7 453761206#8 453761206#9 39590262#0 39590262#1 1083211596#1 1083211596#2 1083211597#1 704509573#0 704509573#1 704509573#2 39598629#0 39598629#1 39598629#2 39598629#3 39598629#4 -39607956#5 263330574 30912891 263330569"/>
    </vehicle>
    <vehicle id="veh42" type="veh_passenger" depart="127.01" departLane="best">
        <route edges="E2 39607956#5 39607956#6 39607956#7 1016388206#2 39598458#0"/>
    </vehicle>
    <vehicle id="veh43" type="veh_passenger" depart="130.04" departLane="best">
        <route edges="868082261#2 448867798#2 448867798#3 212710702 191987944 -1016388206#5 -1016388206#3 -1016388206#2 -39607956#7 -39607956#6 -39607956#5 263330574 30912891 549758313"/>
    </vehicle>
    <vehicle id="veh44" type="veh_passenger" depart="133.06" departLane="best">
        <route edges="-1016388206#5 -1016388206#3 39598458#0 39598232#0 456405100#0 456405100#1 456405100#2 105637466#1 39633790#0 39633790#1 39633790#2 453761206#1"/>
    </vehicle>
    <vehicle id="veh45" type="veh_passenger" depart="136.08" departLane="best">
        <route edges="39608973#1 -1016388206#3 39598458#0 39598458#1 39598458#2 704509573#0 39598589#0"/>
    </vehicle>
    <vehicle id="veh46" type="veh_passenger" depart="139.11" departLane="best" departSpeed="max">
        <route edges="1014684308 1014684308.33 -453762946#1 -453762946#0 -453762947 -448195881#3 -448195881#2 -448195881#1 -39601146 E2 39607956#5 39607956#6 39607956#7 1016388206#2 1016388206#3 39608992#1 448809958 456405094#0 456405094#1 39609005#0 39609005#3 39609005#4 39609005#5 39609005#6 39609005#7 39609005#8"/>
    </vehicle>
    <vehicle id="veh47" type="veh_passenger" depart="142.13" departLane="best">
        <route edges="30912883#2 28785456 212710702 212710692#0 212710692#1 1028339894 1016548268#0 1016548268#1 1083211596#0 1083211596#1 1083211596#2 1083211597#1 704509573#0 704509573#1 704509573#2 704509573#3 704509573#4 704509573#5 704509573#6 910431582 910431582.350"/>
    </vehicle>
    <vehicle id="veh48" type="veh_passenger" depart="145.16" departLane="best">
        <route edges="39609005#10 -448809958 39608973#1 -1016388206#3 39598458#0 39598232#0 456405100#0 456405100#1 456405100#2 105637466#1"/>
    </vehicle>
    <vehicle id="veh49" type="veh_passenger" depart="148.18" departLane="best" departSpeed="max">
        <route edges="37345793 28785456 212710702 212710692#0 212710692#1 1028339894 1016548268#0 1016548268#1 1083211596#0 1083211596#1 1083211596#2 105637466#1 39633790#0 39633790#1 39633790#2 453761206#1 178413106 -482122892#5 -482122892#4 -482122892#3"/>
    </vehicle>
    <vehicle id="veh50" type="veh_passenger" depart="151.20" departLane="best">
        <route edges="448195881#3 453762947 453762946#0 453762946#1 453762943#0 453762943#1 1014684309 306780234#3 39598589#0 39598589#1"/>
    </vehicle>
    <vehicle id="veh51" type="veh_passenger" depart="154.23" departLane="best" departSpeed="max">
        <route edges="448867798#0 448867798#2 448867798#3 212710702 191987944 -1016388206#5 -1016388206#3 39598458#0 39598458#1"/>
    </vehicle>
    <vehicle id="veh52" type="veh_passenger" depart="157.25" departLane="best">
        <route edges="-1016192005#0 39608973#1 -1016388206#3 39598458#0 39598232#0 456405100#0 456405100#1 456405100#2 105637466#1 914265953#0 206544631"/>
    </vehicle>
    <vehicle id="veh53" type="veh_passenger" depart="160.28" departLane="best" departSpeed="max">
        <route edges="-1017147074#0 30912941#0 30912941#2 1014684309 453761206#0 453761206#1 453761206#2 453761206#3 453761206#4 453761206#7 453761206#8 453761206#9 1014684310#0 1014684310#1 1014684310#2 -13797599#1 -1016548268#1 -1016548268#0 -1028339894 -212710692#1 -212710692#0 -212710702 -448867798#3 -448867798#2 -868082261#2 868082273"/>
    </vehicle>
    <vehicle id="veh54" type="veh_passenger" depart="163.30" departLane="best">
        <route edges="456405094#1 39609005#0 39609005#3 39609005#4 39609005#5 39609005#6 39609005#7 39609005#8 39609005#9 39609005#10 -448809958 39608973#1 -1016388206#3 39598458#0 39598232#0 456405100#0 456405100#1 456405100#2"/>
    </vehicle>
    <vehicle id="veh55" type="veh_passenger" depart="166.32" departLane="best">
        <route edges="39608490#1 -1028339894 30912883#0 30912883#1 30912883#2 212710696#0 -37345789"/>
    </vehicle>
    <vehicle id="veh56" type="veh_passenger" depart="169.35" departLane="best">
        <route edges="39609005#10 -448809958 39608973#1 -1016388206#3 -1016388206#2 -39607956#7 -39607956#6 -39607956#5 -E2 39601146 448195881#1 448195881#2 448195881#3 910431582 910431582.350"/>
    </vehicle>
    <vehicle id="veh57" type="veh_passenger" depart="172.37" departLane="best" departSpeed="max">
        <route edges="-212710696#1 -212710696#0 28785456 212710702 212710692#0 212710692#1 1028339894 1016548268#0 1016548268#1 1083211596#0 1083211596#1 1083211596#2 1083211597#1 704509573#0 704509573#1 704509573#2 704509573#3 704509573#4 704509573#5 704509573#6 453762947 453762946#0 453762946#1 453762944#0 453762944#1 453762944#2 1017147074#0 39587490#0 -308771430 -39588456 39586894#2"/>
    </vehicle>
    <vehicle id="veh58" type="veh_passenger" depart="175.40" departLane="best">
        <route edges="-212710692#0 191987944 39608490#0 39608490#1 1016548268#0 1016548268#1 13797599#0 13715562 453761207#0"/>
    </vehicle>
    <vehicle id="veh59" type="veh_passenger" depart="178.42" departLane="best">
        <route edges="310746310#0 310746311 39590262#1 1083211596#1 1083211596#2 1083211597#1 704509573#0 704509573#1 704509573#2 39598629#0"/>
    </vehicle>
    <vehicle id="veh60" type="veh_passenger" depart="181.45" departLane="best" departSpeed="max">
        <route edges="1014684308 1014684308.33 453762943#0 453762943#1 1014684309 306780234#3 704509573#1"/>
    </vehicle>
    <vehicle id="veh61" type="veh_passenger" depart="184.47" departLane="best">
        <route edges="306780234#1 306780234#2 306780234#3 704509573#1 704509573#2 704509573#3 704509573#4 704509573#5 704509573#6 910431582 E3 1014684308.33"/>
    </vehicle>
    <vehicle id="veh62" type="veh_passenger" depart="187.49" departLane="best">
        <route edges="39588456 308771430 39587108#0 39587108#2 306780234#0 306780234#1 306780234#2 453761206#0 453761206#1 453761206#2"/>
    </vehicle>
    <vehicle id="veh63" type="veh_passenger" depart="190.52" departLane="best">
        <route edges="482122892#4 482122892#5 39597960#1 453761206#3 453761206#4 453761206#7 453761206#8 453761206#9 1014684310#0 1014684310#1 1014684310#2 -13797599#1 -1016548268#1 -1016548268#0 -1028339894 -212710692#1 -212710692#0 191987944"/>
    </vehicle>
    <vehicle id="veh64" type="veh_passenger" depart="193.54" departLane="best">
        <route edges="E2 39607956#5 39607956#6 39607956#7 1016388206#2 1016388206#3 1016388206#5 39608733 39608754 -448867798#3 -448867798#2 39609021#0 39609021#1"/>
    </vehicle>
    <vehicle id="veh65" type="veh_passenger" depart="196.57" departLane="best" departSpeed="max">
        <route edges="306780458#0 755512797#0 755512797#1 -13797599#3 -13797599#1 1083211596#0 1083211596#1 1083211596#2 105637466#1 914265953#0 453761206#7 310786269 -39597607#2 -39597607#1 -39597607#0 39597607#0 39597607#1 39597607#2 39597779#0 39597779#1"/>
    </vehicle>
    <vehicle id="veh66" type="veh_passenger" depart="199.59" departLane="best">
        <route edges="-39598745#1 -39598745#0 448195881#1 448195881#2 448195881#3 453762947 453762946#0 453762946#1 453762943#0 453762943#1 1014684309 453761206#0 453761206#1 453761206#2 453761206#3 453761206#4 453761206#7 453761206#8 453761206#9 1014684310#0"/>
    </vehicle>
    <vehicle id="veh68" type="veh_passenger" depart="205.64" departLane="best">
        <route edges="868082261#2 448867798#2 448867798#3 212710702 212710692#0 212710692#1 1028339894 1016548268#0 1016548268#1 1083211596#0 1083211596#1 1083211596#2 1083211597#1 704509573#0 704509573#1 704509573#2 704509573#3 704509573#4 704509573#5 704509573#6 453762947 453762946#0 453762946#1 453762943#0 453762943#1 1014684309"/>
    </vehicle>
    <vehicle id="veh69" type="veh_passenger" depart="208.66" departLane="best">
        <route edges="-212710692#1 -212710692#0 -212710702 -448867798#3 -448867798#2 39609021#0 39609021#1 39609021#2 39609005#3 39609005#4"/>
    </vehicle>
    <vehicle id="veh70" type="veh_passenger" depart="211.69" departLane="best">
        <route edges="868082261#1 868082261#2 448867798#2 448867798#3 212710702 191987944 -1016388206#5 -1016388206#3 -1016388206#2 -39607956#7 -39607956#6 -39607956#5 -E2 -39607956#0 -741767469#2 -741767469#0"/>
    </vehicle>
    <vehicle id="veh71" type="veh_passenger" depart="214.71" departLane="best">
        <route edges="453762946#0 453762946#1 453762943#0 453762943#1 1014684309 453761206#0 453761206#1 453761206#2 453761206#3 453761206#4 453761206#7 310786269 -39597607#2 -39597607#1 -39597607#0"/>
    </vehicle>
    <vehicle id="veh72" type="veh_passenger" depart="217.73" departLane="best">
        <route edges="E2 39607956#5 39607956#6 39607956#7 1016388206#2 39598458#0 39598232#0 456405100#0 456405100#1 456405100#2 105637466#1 39633790#0 39633790#1"/>
    </vehicle>
    <vehicle id="veh73" type="veh_passenger" depart="220.76" departLane="best">
        <route edges="453761206#3 453761206#4 453761206#7 453761206#8 453761206#9 1014684310#0 1014684310#1 1014684310#2 -13797599#1 -1016548268#1 -1016548268#0 -1028339894 -212710692#1 -212710692#0 -212710702 -448867798#3 -448867798#2 -868082261#2 -868082261#1 -868082261#0"/>
    </vehicle>
    <vehicle id="veh74" type="veh_passenger" depart="223.78" departLane="best">
        <route edges="306780234#1 306780234#2 453761206#0 453761206#1 453761206#2 453761206#3 453761206#4 453761206#7 453761206#8 453761206#9 1014684310#0 1014684310#1 1014684310#2 13715562 453761207#0 453761207#1 34772371#0"/>
    </vehicle>
    <vehicle id="veh75" type="veh_passenger" depart="226.81" departLane="best">
        <route edges="914265952 39633589 456405100#2 1083211597#1 704509573#0 39598589#0 39598589#1 -39607956#7"/>
    </vehicle>
    <vehicle id="veh76" type="veh_passenger" depart="229.83" departLane="best" departSpeed="max">
        <route edges="263330575 30912891 263330569 263330686 39607956#0 E2 39607956#5 39607956#6 39607956#7 1016388206#2 1016388206#3 1016388206#5 39608490#0 39608490#1 -1028339894 30912883#0 30912883#1 30912883#2 212710696#0 212710696#1"/>
    </vehicle>
    <vehicle id="veh77" type="veh_passenger" depart="232.85" departLane="best">
        <route edges="453762946#1 453762943#0 453762943#1 1014684309 306780234#3 39598589#0 39598589#1 1016388206#2 1016388206#3 1016388206#5"/>
    </vehicle>
    <vehicle id="veh78" type="veh_passenger" depart="235.88" departLane="best" departSpeed="max">
        <route edges="-456405097 39609005#7 39609005#8 39609005#9 39609005#10 -448809958 39608973#1 -1016388206#3 -1016388206#2 -39607956#7 -39607956#6 -39607956#5 -E2 39601146 448195881#1 448195881#2 448195881#3 453762947 453762946#0 453762946#1 453762944#0 453762944#1 453762944#2 30912941#0 30912941#2"/>
    </vehicle>
    <vehicle id="veh79" type="veh_passenger" depart="238.90" departLane="best">
        <route edges="306780234#1 306780234#2 453761206#0 453761206#1 453761206#2 453761206#3 453761206#4 453761206#7 453761206#8 453761206#9 39590262#0 39590262#1 1083211596#1 1083211596#2"/>
    </vehicle>
    <vehicle id="veh80" type="veh_passenger" depart="241.93" departLane="best" departSpeed="max">
        <route edges="1014684308 1014684308.33 453762943#0 453762943#1 1014684309 453761206#0 453761206#1 453761206#2 453761206#3 453761206#4 453761206#7 453761206#8 453761206#9 1014684310#0 1014684310#1 1014684310#2 -13797599#1 -1016548268#1 -1016548268#0 -1028339894 -212710692#1 -212710692#0 -212710702 -448867798#3 -448867798#2 -868082261#2 -868082261#1 -868082261#0 868082260#1"/>
    </vehicle>
    <vehicle id="veh81" type="veh_passenger" depart="244.95" departLane="best">
        <route edges="308771430 39587108#0 39587108#2 306780234#0 306780234#1 306780234#2 306780234#3 39598589#0 39598589#1 -39607956#7 -39607956#6 -39607956#5 263330574 30912891 549758313"/>
    </vehicle>
    <vehicle id="veh82" type="veh_passenger" depart="247.97" departLane="best" departSpeed="max">
        <route edges="39597607#0 39597607#1 39597607#2 39597779#0 39597779#1 1014684310#0 1014684310#1 1014684310#2 -13797599#1 -1016548268#1 -1016548268#0 -1028339894 30912883#0 30912883#1 30912883#2 212710696#0 -37345789"/>
    </vehicle>
    <vehicle id="veh83" type="veh_passenger" depart="251.00" departLane="best">
        <route edges="E3 1014684308.33 453762943#0 453762943#1 1014684309 453761206#0 453761206#1 178413106 -482122892#5 -482122892#4 -482122892#3 -482122892#2 -482122892#1"/>
    </vehicle>
    <vehicle id="veh84" type="veh_passenger" depart="254.02" departLane="best">
        <route edges="453762944#0 453762944#1 453762944#2 30912941#0 30912941#2 1014684309 453761206#0 453761206#1 178413106 -482122892#5 -482122892#4 -482122892#3 -482122892#2 -482122892#1 -482122892#0"/>
    </vehicle>
    <vehicle id="veh85" type="veh_passenger" depart="257.05" departLane="best" departSpeed="max">
        <route edges="37345789 -212710696#0 28785456 212710702 212710692#0 212710692#1 1028339894 1016548268#0 1016548268#1 1083211596#0 1083211596#1 1083211596#2 1083211597#1 704509573#0 704509573#1 704509573#2 704509573#3 704509573#4 704509573#5 704509573#6 910431582 E3 1014684308.33"/>
    </vehicle>
    <vehicle id="veh86" type="veh_passenger" depart="260.07" departLane="best" departSpeed="max">
        <route edges="263330575 30912891 263330569 263330686 39607956#0 E2 39607956#5 39607956#6 39607956#7 1016388206#2 1016388206#3 1016388206#5 39608490#0 39608490#1 -1028339894 30912883#0 30912883#1 30912883#2 212710696#0 -37345789"/>
    </vehicle>
    <vehicle id="veh87" type="veh_passenger" depart="263.10" departLane="best" departSpeed="max">
        <route edges="1014684308 1014684308.33 453762944#0 453762944#1 453762944#2"/>
    </vehicle>
    <vehicle id="veh88" type="veh_passenger" depart="266.12" departLane="best" departSpeed="max">
        <route edges="30912884 30912883#2 28785456 212710702 212710692#0 212710692#1 1028339894 1016548268#0 1016548268#1 1083211596#0 1083211596#1 1083211596#2 105637466#1 39633790#0 39633790#1 39633790#2 453761206#1 178413106 -482122892#5 -482122892#4 -482122892#3 -482122892#2 -482122892#1 39598055 306780234#1"/>
    </vehicle>
    <vehicle id="veh89" type="veh_passenger" depart="269.14" departLane="best">
        <route edges="704509573#6 -448195881#3 -448195881#2 -448195881#1 -39601146 E2"/>
    </vehicle>
    <vehicle id="veh90" type="veh_passenger" depart="272.17" departLane="best" departSpeed="max">
        <route edges="39597607#0 39597607#1 39597607#2 39597779#0 39597779#1 39590262#0 39590262#1 1083211596#1 1083211596#2 105637466#1 39633790#0 39633790#1 39633790#2 453761206#1"/>
    </vehicle>
    <vehicle id="veh91" type="veh_passenger" depart="275.19" departLane="best">
        <route edges="-453761207#0 -13715562 13797599#2 13797599#4"/>
    </vehicle>
    <vehicle id="veh92" type="veh_passenger" depart="278.22" departLane="best">
        <route edges="868082261#1 868082261#2 448867798#2 448867798#3 212710702 191987944 -1016388206#5 -1016388206#3 -1016388206#2 -39607956#7 39598605#0 39598760#2"/>
    </vehicle>
    <vehicle id="veh93" type="veh_passenger" depart="281.24" departLane="best">
        <route edges="306780234#1 306780234#2 453761206#0 453761206#1 453761206#2 453761206#3 453761206#4 453761206#7 453761206#8"/>
    </vehicle>
    <vehicle id="veh94" type="veh_passenger" depart="284.26" departLane="best" departSpeed="max">