<?xml version="1.0" encoding="UTF-8"?>

<!-- generated on 2023-06-07 10:34:17.860153 by randomTrips.py v1_16_0+0000-94ec4c6cd72
<configuration>
    <begin value="0"/>
    <end value="39600"/>
    <fringe-factor value="max"/>
    <fringe-start-attributes value="departSpeed=&quot;max&quot;"/>
    <insertion-density value="1.0"/>
    <min-distance.fringe value="10.0"/>
    <min-distance value="600.0"/>
    <net-file value="osm.netbaseline.xml.gz"/>
    <remove-loops value="True"/>
    <route-file value="osm.bus.rou.xml"/>
    <trip-attributes value="departLane=&quot;best&quot;"/>
    <prefix value="bus"/>
    <validate value="True"/>
    <vclass value="bus"/>
    <vehicle-class value="bus"/>
</configuration>
-->

<!-- generated on 2023-06-07 10:34:17 by Eclipse SUMO duarouter Version 1.16.0
<configuration xmlns:xsi="http://www.w3.org/2001/XMLSchema-instance" xsi:noNamespaceSchemaLocation="http://sumo.dlr.de/xsd/duarouterConfiguration.xsd">

    <input>
        <net-file value="osm.netbaseline.xml.gz"/>
        <route-files value="trips.trips.xml"/>
    </input>

    <output>
        <output-file value="osm.bus.rou.xml"/>
        <alternatives-output value="NUL"/>
    </output>

    <processing>
        <remove-loops value="true"/>
    </processing>

    <time>
        <begin value="0"/>
        <end value="39600"/>
    </time>

    <report>
        <no-warnings value="true"/>
        <ignore-errors value="true"/>
        <no-step-log value="true"/>
    </report>

</configuration>
-->

<routes xmlns:xsi="http://www.w3.org/2001/XMLSchema-instance" xsi:noNamespaceSchemaLocation="http://sumo.dlr.de/xsd/routes_file.xsd">
    <vType id="bus_bus" vClass="bus" carFollowModel="KraussPS" color="red"/>
    <vehicle id="bus0" type="bus_bus" depart="0.00" departLane="best" departSpeed="max">
        <route edges="-456405097 39609005#7 39609005#8 39609005#9 39609005#10 -448809958 39608973#1 -1016388206#3 39598458#0 39598232#0 456405100#0 456405100#1 456405100#2 105637466#1 39633790#0 39633790#1 39633790#2 453761206#1 178413106 -482122892#5 -482122892#4 -482122892#3 -482122892#2 -482122892#1 -482122892#0"/>
    </vehicle>
    <vehicle id="bus1" type="bus_bus" depart="69.52" departLane="best" departSpeed="max">
        <route edges="39597607#0 39597607#1 39597607#2 39597779#0 39597779#1 1014684310#0 1014684310#1 1014684310#2 -13797599#1 -1016548268#1 -1016548268#0 -1028339894 -212710692#1 -212710692#0 191987944 -1016388206#5 39608992#1 448809958 456405094#0 456405094#1 39609005#0 456405096"/>
    </vehicle>
    <vehicle id="bus2" type="bus_bus" depart="139.04" departLane="best" departSpeed="max">
        <route edges="456405098 39609005#2 39609005#3 39609005#4 39609005#5 39609005#6 39609005#7 39609005#8 39609005#9 39609005#10 -448809958 39608973#1 -1016388206#3 39598458#0 39598232#0 456405100#0 456405100#1 456405100#2 105637466#1 914265953#0 453761206#7 310786269 -39597607#2 -39597607#1 -39597607#0"/>
    </vehicle>
    <vehicle id="bus3" type="bus_bus" depart="208.55" departLane="best" departSpeed="max">
        <route edges="1016548269 -1016548268#1 -1016548268#0 -1028339894 30912883#0 30912883#1 30912883#2 212710696#0 -37345789"/>
    </vehicle>
    <vehicle id="bus4" type="bus_bus" depart="278.07" departLane="best" departSpeed="max">
        <route edges="-34772371#3 -453761207#2 -453761207#0 -13715562 -13797599#1 -1016548268#1 -1016548268#0 -1028339894 -212710692#1 -212710692#0 191987944 -1016388206#5 -1016388206#3 -1016388206#2 -39607956#7 -39607956#6 -39607956#5 -E2 -39607956#0 -263330686 263330570"/>
    </vehicle>
    <vehicle id="bus5" type="bus_bus" depart="347.59" departLane="best" departSpeed="max">
        <route edges="-1017147074#0 -453762944#3 -453762944#1 -453762944#0 -453762946#1 -453762946#0 -453762947 -448195881#3 -448195881#2 -448195881#1 -39601146 E2 39607956#5 39607956#6 39607956#7 1016388206#2 1016388206#3 39608992#1 448809958 456405094#0 456405094#1 39609005#0 39609005#1 -456405098"/>
    </vehicle>
    <vehicle id="bus6" type="bus_bus" depart="417.11" departLane="best" departSpeed="max">
        <route edges="37345793 28785456 212710702 191987944 -1016388206#5 -1016388206#3 -1016388206#2 -39607956#7 -39607956#6 -39607956#5 -E2 -39607956#0 -263330686 263330570"/>
    </vehicle>
    <vehicle id="bus7" type="bus_bus" depart="486.63" departLane="best" departSpeed="max">
        <route edges="-34772371#3 -453761207#2 -453761207#0 -13715562 -13797599#1 -1016548268#1 -1016548268#0 -1028339894 -212710692#1 -212710692#0 191987944 -1016388206#5 -1016388206#3 -1016388206#2 -39607956#7 -39607956#6 -39607956#5 263330574 30912891 263330571"/>
    </vehicle>
    <vehicle id="bus8" type="bus_bus" depart="556.14" departLane="best" departSpeed="max">
        <route edges="39598863#0 39598863#1 -448195881#1 -39601146 E2 39607956#5 39607956#6 39607956#7 1016388206#2 1016388206#3 1016388206#5 39608490#0 39608490#1 -1028339894 30912883#0 30912883#1 30912883#2 212710696#0 -37345789"/>
    </vehicle>
    <vehicle id="bus9" type="bus_bus" depart="625.66" departLane="best" departSpeed="max">
        <route edges="39598863#0 39598863#1 -448195881#1 -39601146 E2 39607956#5 39607956#6 39607956#7 1016388206#2 1016388206#3 39608992#1 448809958 456405094#0 456405094#1 39609005#0 456405096"/>
    </vehicle>
    <vehicle id="bus10" type="bus_bus" depart="695.18" departLane="best" departSpeed="max">
        <route edges="E0 741767469#0 39598786#0 39598786#1 448195881#1 448195881#2 448195881#3 453762947 453762946#0 453762946#1 453762943#0 453762943#1 1014684309 453761206#0 453761206#1 453761206#2 453761206#3 453761206#4 206544631"/>
    </vehicle>
    <vehicle id="bus11" type="bus_bus" depart="764.70" departLane="best" departSpeed="max">
        <route edges="448867798#0 448867798#2 448867798#3 212710702 212710692#0 212710692#1 1028339894 1016548268#0 1016548268#1 13797599#0 13715562 453761207#0 453761207#1 34772371#0"/>
    </vehicle>
    <vehicle id="bus12" type="bus_bus" depart="834.22" departLane="best" departSpeed="max">
        <route edges="39598863#0 39598863#1 -448195881#1 -39601146 E2 39607956#5 39607956#6 39607956#7 1016388206#2 1016388206#3 39608992#1 448809958 456405094#0 456405094#1 39609005#0 39609005#1 39609005#2 39609005#3 39609005#4 39609005#5 39609005#6 456405097"/>
    </vehicle>
    <vehicle id="bus13" type="bus_bus" depart="903.73" departLane="best" departSpeed="max">
        <route edges="306780458#0 755512797#0 755512797#1 -13797599#3 -13797599#1 -1016548268#1 -1016548268#0 -1028339894 -212710692#1 -212710692#0 191987944 -1016388206#5 -1016388206#3 -1016388206#2 -39607956#7 -39607956#6 -39607956#5 -E2 -39607956#0 -741767469#2 -741767469#0 E1"/>
    </vehicle>
    <vehicle id="bus14" type="bus_bus" depart="973.25" departLane="best" departSpeed="max">
        <route edges="1014684308 -453762946#1 -453762946#0 -453762947 -448195881#3 -448195881#2 -448195881#1 -39601146 E2 263330574 30912891 263330571"/>
    </vehicle>
    <vehicle id="bus15" type="bus_bus" depart="1042.77" departLane="best" departSpeed="max">
        <route edges="448867798#0 448867798#2 448867798#3 212710702 212710692#0 212710692#1 1028339894 1016548268#0 1016548268#1 13797599#0 13715562 453761207#0 453761207#1 34772371#0"/>
    </vehicle>
    <vehicle id="bus16" type="bus_bus" depart="1112.29" departLane="best" departSpeed="max">
        <route edges="448867798#0 448867798#2 448867798#3 212710702 191987944 -1016388206#5 -1016388206#3 -1016388206#2 -39607956#7 -39607956#6 -39607956#5 263330574 30912891 263330571"/>
    </vehicle>
    <vehicle id="bus17" type="bus_bus" depart="1181.81" departLane="best" departSpeed="max">
        <route edges="39586894#0 39586894#1 39588456 308771430 39587108#0 39587108#2 306780234#0 306780234#1 306780234#2 453761206#0 453761206#1 453761206#2 453761206#3 453761206#4 453761206#7 453761206#8 453761206#9 1014684310#0 1014684310#1 1014684310#2 -13797599#1 -1016548268#1 -1016548268#0 -1028339894 30912883#0 30912883#1 30912883#2 212710696#0 -37345789"/>
    </vehicle>
    <vehicle id="bus18" type="bus_bus" depart="1251.33" departLane="best" departSpeed="max">
        <route edges="-456405096 39609005#1 39609005#2 39609005#3 39609005#4 39609005#5 39609005#6 39609005#7 39609005#8 39609005#9 39609005#10 -448809958 39608973#1 1016388206#5 39608490#0 39608490#1 1016548268#0 1016548268#1 13797599#0 13797599#2 13797599#4"/>
    </vehicle>
    <vehicle id="bus19" type="bus_bus" depart="1320.84" departLane="best" departSpeed="max">
        <route edges="1014684308 453762943#0 453762943#1 1014684309 453761206#0 453761206#1 178413106 -482122892#5 -482122892#4 -482122892#3 -482122892#2 -482122892#1 -482122892#0"/>
    </vehicle>
    <vehicle id="bus20" type="bus_bus" depart="1390.36" departLane="best" departSpeed="max">
        <route edges="37345793 28785456 212710702 212710692#0 212710692#1 1028339894 1016548268#0 1016548268#1 13797599#0 13715562 453761207#0 453761207#1 34772371#0"/>
    </vehicle>
    <vehicle id="bus21" type="bus_bus" depart="1459.88" departLane="best" departSpeed="max">
        <route edges="E0 741767469#0 741767469#2 39607956#0 E2 39607956#5 39607956#6 39607956#7 1016388206#2 1016388206#3 1016388206#5 39608490#0 39608490#1 1016548268#0 1016548268#1 13797599#0 13715562 453761207#0 453761207#1 34772371#0"/>
    </vehicle>
    <vehicle id="bus22" type="bus_bus" depart="1529.40" departLane="best" departSpeed="max">
        <route edges="448867798#0 448867798#2 448867798#3 212710702 191987944 -1016388206#5 -1016388206#3 -1016388206#2 -39607956#7 -39607956#6 -39607956#5 263330574 30912891 549758313"/>
    </vehicle>
    <vehicle id="bus23" type="bus_bus" depart="1598.92" departLane="best" departSpeed="max">
        <route edges="-456405097 39609005#7 39609005#8 39609005#9 39609005#10 -448809958 39608973#1 1016388206#5 39608490#0 39608490#1 1016548268#0 1016548268#1 13797599#0 13797599#2 13797599#4"/>
    </vehicle>
    <vehicle id="bus24" type="bus_bus" depart="1668.43" departLane="best" departSpeed="max">
        <route edges="-34772371#3 -453761207#2 -453761207#0 -13715562 -13797599#1 -1016548268#1 -1016548268#0 -1028339894 -212710692#1 -212710692#0 191987944 -1016388206#5 -1016388206#3 -1016388206#2 -39607956#7 -39607956#6 -39607956#5 263330574 914265946"/>
    </vehicle>
    <vehicle id="bus25" type="bus_bus" depart="1737.95" departLane="best" departSpeed="max">
        <route edges="456405098 39609005#2 39609005#3 39609005#4 39609005#5 39609005#6 39609005#7 39609005#8 39609005#9 39609005#10 -448809958 39608973#1 -1016388206#3 39598458#0 39598232#0 456405100#0 456405100#1 456405100#2 105637466#1 914265953#0 206544631"/>
    </vehicle>
    <vehicle id="bus26" type="bus_bus" depart="1807.47" departLane="best" departSpeed="max">
        <route edges="482122892#0 482122892#1 482122892#2 482122892#3 482122892#4 482122892#5 39597960#1 453761206#3 453761206#4 453761206#7 453761206#8 453761206#9 1014684310#0 1014684310#1 1014684310#2 -13797599#1 -1016548268#1 -1016548268#0 252525258"/>
    </vehicle>
    <vehicle id="bus27" type="bus_bus" depart="1876.99" departLane="best" departSpeed="max">
        <route edges="-456405096 39609005#1 39609005#2 39609005#3 39609005#4 39609005#5 39609005#6 39609005#7 39609005#8 39609005#9 39609005#10 -448809958 39608973#1 -1016388206#3 39598458#0 39598232#0 456405100#0 456405100#1 456405100#2 105637466#1 39633790#0 39633790#1 39633790#2 453761206#1 178413106 -482122892#5 -482122892#4 -482122892#3 -482122892#2 -482122892#1 -482122892#0"/>
    </vehicle>
    <vehicle id="bus28" type="bus_bus" depart="1946.51" departLane="best" departSpeed="max">
        <route edges="30912884 30912883#2 28785456 212710702 212710692#0 212710692#1 1028339894 1016548268#0 1016548268#1 13797599#0 13797599#2 13797599#4"/>
    </vehicle>
    <vehicle id="bus29" type="bus_bus" depart="2016.02" departLane="best" departSpeed="max">
        <route edges="30912884 30912883#2 28785456 212710702 212710692#0 212710692#1 1028339894 1016548268#0 1016548268#1 1083211596#0 1083211596#1 1083211596#2 1083211597#1 704509573#0 704509573#1 704509573#2 704509573#3 704509573#4 704509573#5 704509573#6 910431582"/>
    </vehicle>
    <vehicle id="bus30" type="bus_bus" depart="2085.54" departLane="best" departSpeed="max">
        <route edges="1014684308 453762943#0 453762943#1 1014684309 453761206#0 453761206#1 178413106 -482122892#5 -482122892#4 -482122892#3 -482122892#2 -482122892#1 -482122892#0"/>
    </vehicle>
    <vehicle id="bus31" type="bus_bus" depart="2155.06" departLane="best" departSpeed="max">
        <route edges="-206544631 453761206#7 453761206#8 453761206#9 1014684310#0 1014684310#1 1014684310#2 -13797599#1 -1016548268#1 -1016548268#0 -1028339894 30912883#0 30912883#1 30912883#2 212710696#0 -37345789"/>
    </vehicle>
    <vehicle id="bus32" type="bus_bus" depart="2224.58" departLane="best" departSpeed="max">
        <route edges="39598863#0 39598863#1 448195881#2 448195881#3 453762947 453762946#0 453762946#1 453762943#0 453762943#1 1014684309 453761206#0 453761206#1 453761206#2 453761206#3 453761206#4 453761206#7 453761206#8 453761206#9 1014684310#0 1014684310#1 1014684310#2 13715562 453761207#0 453761207#1 228569801"/>
    </vehicle>
    <vehicle id="bus33" type="bus_bus" depart="2294.10" departLane="best" departSpeed="max">
        <route edges="-13797599#4 -13797599#3 -13797599#1 -1016548268#1 -1016548268#0 -1028339894 30912883#0 30912883#1 30912883#2 212710696#0 212710696#1"/>
    </vehicle>
    <vehicle id="bus34" type="bus_bus" depart="2363.61" departLane="best" departSpeed="max">
        <route edges="-1017147074#0 -453762944#3 -453762944#1 -453762944#0 -453762946#1 -453762946#0 -453762947 -448195881#3 -448195881#2 -448195881#1 -39601146 E2 39607956#5 39607956#6 39607956#7 1016388206#2 1016388206#3 39608992#1 448809958 456405094#0 456405094#1 39609005#0 39609005#1 39609005#2 39609005#3 39609005#4 39609005#5 39609005#6 456405097"/>
    </vehicle>
    <vehicle id="bus35" type="bus_bus" depart="2433.13" departLane="best" departSpeed="max">
        <route edges="37345793 28785456 212710702 191987944 -1016388206#5 -1016388206#3 -1016388206#2 -39607956#7 -39607956#6 -39607956#5 -E2 -39607956#0 -263330686 263330570"/>
    </vehicle>
    <vehicle id="bus36" type="bus_bus" depart="2502.65" departLane="best" departSpeed="max">
        <route edges="-456405096 39609005#1 39609005#2 39609005#3 39609005#4 39609005#5 39609005#6 39609005#7 39609005#8 39609005#9 39609005#10 -448809958 39608973#1 1016388206#5 39608490#0 39608490#1 1016548268#0 1016548268#1 13797599#0 13715562 453761207#0 453761207#1 34772371#0"/>
    </vehicle>
    <vehicle id="bus37" type="bus_bus" depart="2572.17" departLane="best" departSpeed="max">
        <route edges="1016548269 1083211596#0 1083211596#1 1083211596#2 1083211597#1 704509573#0 704509573#1 704509573#2 704509573#3 704509573#4 704509573#5 704509573#6 -448195881#3 -448195881#2 -448195881#1 -39601146 -39607956#0 -741767469#2 -741767469#0 E1"/>
    </vehicle>
    <vehicle id="bus38" type="bus_bus" depart="2641.69" departLane="best" departSpeed="max">
        <route edges="456405098 39609005#2 39609005#3 39609005#4 39609005#5 39609005#6 39609005#7 39609005#8 39609005#9 39609005#10 -448809958 39608973#1 1016388206#5 39608490#0 39608490#1 1016548268#0 1016548268#1 13797599#0 13797599#2 13797599#4"/>
    </vehicle>
    <vehicle id="bus39" type="bus_bus" depart="2711.20" departLane="best" departSpeed="max">
        <route edges="306780458#0 755512797#0 755512797#1 -13797599#3 -13797599#1 -1016548268#1 -1016548268#0 -1028339894 -212710692#1 -212710692#0 191987944 -1016388206#5 39608992#1 448809958 456405094#0 456405094#1 39609005#0 39609005#1 -456405098"/>
    </vehicle>
    <vehicle id="bus40" type="bus_bus" depart="2780.72" departLane="best" departSpeed="max">
        <route edges="482122892#0 39598055 306780234#1 306780234#2 306780234#3 704509573#1 704509573#2 704509573#3 704509573#4 704509573#5 704509573#6 910431582"/>
    </vehicle>
    <vehicle id="bus41" type="bus_bus" depart="2850.24" departLane="best" departSpeed="max">
        <route edges="-456405097 39609005#7 39609005#8 39609005#9 39609005#10 -448809958 39608973#1 1016388206#5 39608490#0 39608490#1 1016548268#0 1016548268#1 13797599#0 13715562 453761207#0 453761207#1 34772371#0"/>
    </vehicle>
    <vehicle id="bus42" type="bus_bus" depart="2919.76" departLane="best" departSpeed="max">
        <route edges="39597607#0 39597607#1 39597607#2 39597779#0 39597779#1 39590262#0 39590262#1 1083211596#1 1083211596#2 1083211597#1 704509573#0 704509573#1 704509573#2 704509573#3 704509573#4 704509573#5 704509573#6 -448195881#3 -448195881#2 -448195881#1 -39601146 -39607956#0 -263330686 263330570"/>
    </vehicle>
    <vehicle id="bus43" type="bus_bus" depart="2989.28" departLane="best" departSpeed="max">
        <route edges="-1017147074#0 -453762944#3 -453762944#1 -453762944#0 -453762946#1 -453762946#0 -453762947 -448195881#3 -448195881#2 -448195881#1 -39601146 E2 263330574 914265946"/>
    </vehicle>
    <vehicle id="bus44" type="bus_bus" depart="3058.79" departLane="best" departSpeed="max">
        <route edges="-456405097 39609005#7 39609005#8 39609005#9 39609005#10 -448809958 39608973#1 -1016388206#3 39598458#0 39598232#0 456405100#0 456405100#1 456405100#2 105637466#1 914265953#0 453761206#7 310786269 -39597607#2 -39597607#1 -39597607#0"/>
    </vehicle>
    <vehicle id="bus45" type="bus_bus" depart="3128.31" departLane="best" departSpeed="max">
        <route edges="-13797599#4 -13797599#3 -13797599#1 -1016548268#1 -1016548268#0 252525258"/>
    </vehicle>
    <vehicle id="bus46" type="bus_bus" depart="3197.83" departLane="best" departSpeed="max">
        <route edges="-13797599#4 -13797599#3 -13797599#1 -1016548268#1 -1016548268#0 -1028339894 -212710692#1 -212710692#0 191987944 -1016388206#5 -1016388206#3 -1016388206#2 -39607956#7 -39607956#6 -39607956#5 263330574 30912891 549758313"/>
    </vehicle>
    <vehicle id="bus47" type="bus_bus" depart="3267.35" departLane="best" departSpeed="max">
        <route edges="39597607#0 39597607#1 39597607#2 39597779#0 39597779#1 1014684310#0 1014684310#1 1014684310#2 -13797599#1 -1016548268#1 -1016548268#0 -1028339894 -212710692#1 -212710692#0 -212710702 -448867798#3 -448867798#2 -448867798#0"/>
    </vehicle>
    <vehicle id="bus48" type="bus_bus" depart="3336.87" departLane="best" departSpeed="max">
        <route edges="-456405096 39609005#1 39609005#2 39609005#3 39609005#4 39609005#5 39609005#6 39609005#7 39609005#8 39609005#9 39609005#10 -448809958 39608973#1 -1016388206#3 -1016388206#2 -39607956#7 -39607956#6 -39607956#5 -E2 39601146 448195881#1 448195881#2 448195881#3 910431582"/>
    </vehicle>
    <vehicle id="bus49" type="bus_bus" depart="3406.39" departLane="best" departSpeed="max">
        <route edges="1016548269 1083211596#0 1083211596#1 1083211596#2 105637466#1 39633790#0 39633790#1 39633790#2 453761206#1 178413106 -482122892#5 -482122892#4 -482122892#3 -482122892#2 -482122892#1 -482122892#0"/>
    </vehicle>
    <vehicle id="bus50" type="bus_bus" depart="3475.90" departLane="best" departSpeed="max">
        <route edges="306780458#0 755512797#0 755512797#1 -13797599#3 -13797599#1 -1016548268#1 -1016548268#0 -1028339894 -212710692#1 -212710692#0 -212710702 -448867798#3 -448867798#2 39609021#0 39609021#1 39609021#2 39609005#3 39609005#4 39609005#5 39609005#6 456405097"/>
    </vehicle>
    <vehicle id="bus51" type="bus_bus" depart="3545.42" departLane="best" departSpeed="max">
        <route edges="E0 741767469#0 741767469#2 39607956#0 E2 39607956#5 39607956#6 39607956#7 1016388206#2 1016388206#3 1016388206#5 39608490#0 39608490#1 1016548268#0 1016548268#1 13797599#0 13715562 453761207#0 453761207#1 34772371#0"/>
    </vehicle>
    <vehicle id="bus52" type="bus_bus" depart="3614.94" departLane="best" departSpeed="max">
        <route edges="1016548269 1083211596#0 1083211596#1 1083211596#2 1083211597#1 704509573#0 704509573#1 704509573#2 704509573#3 704509573#4 704509573#5 704509573#6 -448195881#3 -448195881#2 -448195881#1 -39601146 -39607956#0 -263330686 263330570"/>
    </vehicle>
    <vehicle id="bus53" type="bus_bus" depart="3684.46" departLane="best" departSpeed="max">
        <route edges="-868082260#1 -868082260#0 868082261#1 868082261#2 448867798#2 448867798#3 212710702 191987944 -1016388206#5 -1016388206#3 -1016388206#2 -39607956#7 -39607956#6 -39607956#5 263330574 30912891 263330571"/>
    </vehicle>
    <vehicle id="bus54" type="bus_bus" depart="3753.98" departLane="best" departSpeed="max">
        <route edges="-456405096 39609005#1 39609005#2 39609005#3 39609005#4 39609005#5 39609005#6 39609005#7 39609005#8 39609005#9 39609005#10 -448809958 39608973#1 -1016388206#3 39598458#0 39598232#0 456405100#0 456405100#1 456405100#2 105637466#1 39633790#0 39633790#1 39633790#2 453761206#1 178413106 -482122892#5 -482122892#4 -482122892#3 -482122892#2 -482122892#1 -482122892#0"/>
    </vehicle>
    <vehicle id="bus55" type="bus_bus" depart="3823.49" departLane="best" departSpeed="max">
        <route edges="448867798#0 448867798#2 448867798#3 212710702 212710692#0 212710692#1 1028339894 1016548268#0 1016548268#1 1083211596#0 1083211596#1 1083211596#2 105637466#1 914265953#0 453761206#7 310786269 -39597607#2 -39597607#1 -39597607#0"/>
    </vehicle>
    <vehicle id="bus56" type="bus_bus" depart="3893.01" departLane="best" departSpeed="max">
        <route edges="-34772371#3 -453761207#2 -453761207#0 -13715562 -13797599#1 -1016548268#1 -1016548268#0 -1028339894 -212710692#1 -212710692#0 -212710702 -448867798#3 -448867798#2 -448867798#0"/>
    </vehicle>
    <vehicle id="bus57" type="bus_bus" depart="3962.53" departLane="best" departSpeed="max">
        <route edges="482122892#0 39598055 306780234#1 306780234#2 306780234#3 39598589#0 39598589#1 -39607956#7 -39607956#6 -39607956#5 263330574 30912891 263330571"/>
    </vehicle>
    <vehicle id="bus58" type="bus_bus" depart="4032.05" departLane="best" departSpeed="max">
        <route edges="39598863#0 39598863#1 -448195881#1 -39601146 E2 39607956#5 39607956#6 39607956#7 1016388206#2 1016388206#3 39608992#1 448809958 456405094#0 456405094#1 39609005#0 39609005#1 -456405098"/>
    </vehicle>
    <vehicle id="bus59" type="bus_bus" depart="4101.57" departLane="best" departSpeed="max">
        <route edges="39597607#0 39597607#1 39597607#2 39597779#0 39597779#1 1014684310#0 1014684310#1 1014684310#2 -13797599#1 -1016548268#1 -1016548268#0 -1028339894 -212710692#1 -212710692#0 191987944 -1016388206#5 39608992#1 448809958 456405094#0 456405094#1 39609005#0 456405096"/>
    </vehicle>
    <vehicle id="bus60" type="bus_bus" depart="4171.08" departLane="best" departSpeed="max">
        <route edges="E0 741767469#0 39598786#0 39598786#1 448195881#1 448195881#2 448195881#3 453762947 453762946#0 453762946#1 453762943#0 453762943#1 1014684309 453761206#0 453761206#1 453761206#2 453761206#3 453761206#4 453761206#7 310786269 -39597607#2 -39597607#1 -39597607#0"/>
    </vehicle>
    <vehicle id="bus61" type="bus_bus" depart="4240.60" departLane="best" departSpeed="max">
        <route edges="1014684308 453762943#0 453762943#1 1014684309 453761206#0 453761206#1 453761206#2 453761206#3 453761206#4 206544631"/>
    </vehicle>
    <vehicle id="bus62" type="bus_bus" depart="4310.12" departLane="best" departSpeed="max">
        <route edges="448867798#0 448867798#2 448867798#3 212710702 212710692#0 212710692#1 1028339894 1016548268#0 1016548268#1 1083211596#0 1083211596#1 1083211596#2 105637466#1 39633790#0 39633790#1 39633790#2 453761206#1 178413106 -482122892#5 -482122892#4 -482122892#3 -482122892#2 -482122892#1 -482122892#0"/>
    </vehicle>
    <vehicle id="bus63" type="bus_bus" depart="4379.64" departLane="best" departSpeed="max">
        <route edges="1016548269 1083211596#0 1083211596#1 1083211596#2 1083211597#1 704509573#0 704509573#1 704509573#2 704509573#3 704509573#4 704509573#5 704509573#6 910431582"/>
    </vehicle>
    <vehicle id="bus64" type="bus_bus" depart="4449.16" departLane="best" departSpeed="max">
        <route edges="30912884 30912883#2 28785456 212710702 212710692#0 212710692#1 1028339894 1016548268#0 1016548268#1 1083211596#0 1083211596#1 1083211596#2 105637466#1 914265953#0 453761206#7 310786269 -39597607#2 -39597607#1 -39597607#0"/>
    </vehicle>
    <vehicle id="bus65" type="bus_bus" depart="4518.67" departLane="best" departSpeed="max">
        <route edges="E0 741767469#0 741767469#2 39607956#0 E2 39607956#5 39607956#6 39607956#7 1016388206#2 1016388206#3 1016388206#5 39608733 39608754 -448867798#3 -448867798#2 -868082261#2 -868082261#1 -868082261#0 868082260#1"/>
    </vehicle>
    <vehicle id="bus66" type="bus_bus" depart="4588.19" departLane="best" departSpeed="max">
        <route edges="263330575 30912891 263330569 263330686 39607956#0 39601146 448195881#1 448195881#2 448195881#3 453762947 453762946#0 453762946#1 453762943#0 453762943#1 1014684309 453761206#0 453761206#1 178413106 -482122892#5 -482122892#4 -482122892#3 -482122892#2 -482122892#1 -482122892#0"/>
    </vehicle>
    <vehicle id="bus67" type="bus_bus" depart="4657.71" departLane="best" departSpeed="max">
        <route edges="1014684308 453762943#0 453762943#1 1014684309 453761206#0 453761206#1 453761206#2 453761206#3 453761206#4 453761206#7 310786269 -39597607#2 -39597607#1 -39597607#0"/>
    </vehicle>
    <vehicle id="bus68" type="bus_bus" depart="4727.23" departLane="best" departSpeed="max">
        <route edges="-456405096 39609005#1 39609005#2 39609005#3 39609005#4 39609005#5 39609005#6 39609005#7 39609005#8 39609005#9 39609005#10 -448809958 39608973#1 -1016388206#3 -1016388206#2 -39607956#7 -39607956#6 -39607956#5 263330574 30912891 549758313"/>
    </vehicle>
    <vehicle id="bus69" type="bus_bus" depart="4796.75" departLane="best" departSpeed="max">
        <route edges="263330575 30912891 263330569 263330686 39607956#0 E2 39607956#5 39607956#6 39607956#7 1016388206#2 1016388206#3 1016388206#5 39608490#0 39608490#1 1016548268#0 1016548268#1 13797599#0 13715562 453761207#0 453761207#1 228569801"/>
    </vehicle>
    <vehicle id="bus70" type="bus_bus" depart="4866.26" departLane="best" departSpeed="max">
        <route edges="-212710696#1 -212710696#0 28785456 212710702 212710692#0 212710692#1 1028339894 1016548268#0 1016548268#1 13797599#0 13797599#2 13797599#4"/>
    </vehicle>
    <vehicle id="bus71" type="bus_bus" depart="4935.78" departLane="best" departSpeed="max">
        <route edges="306780458#0 755512797#0 755512797#1 -13797599#3 -13797599#1 -1016548268#1 -1016548268#0 -1028339894 -212710692#1 -212710692#0 -212710702 -448867798#3 -448867798#2 39609021#0 39609021#1 39609021#2 39609005#3 39609005#4 39609005#5 39609005#6 456405097"/>
    </vehicle>
    <vehicle id="bus72" type="bus_bus" depart="5005.30" departLane="best" departSpeed="max">
        <route edges="-13797599#4 -13797599#3 -13797599#1 -1016548268#1 -1016548268#0 -1028339894 -212710692#1 -212710692#0 191987944 -1016388206#5 -1016388206#3 -1016388206#2 -39607956#7 -39607956#6 -39607956#5 263330574 30912891 263330571"/>
    </vehicle>
    <vehicle id="bus73" type="bus_bus" depart="5074.82" departLane="best" departSpeed="max">
        <route edges="306780458#0 755512797#0 755512797#1 -13797599#3 -13797599#1 1083211596#0 1083211596#1 1083211596#2 1083211597#1 704509573#0 704509573#1 704509573#2 704509573#3 704509573#4 704509573#5 704509573#6 910431582"/>
    </vehicle>
    <vehicle id="bus74" type="bus_bus" depart="5144.34" departLane="best" departSpeed="max">
        <route edges="-212710696#1 -212710696#0 28785456 212710702 191987944 -1016388206#5 -1016388206#3 -1016388206#2 -39607956#7 -39607956#6 -39607956#5 -E2 -39607956#0 -741767469#2 -741767469#0 E1"/>
    </vehicle>
    <vehicle id="bus75" type="bus_bus" depart="5213.85" departLane="best" departSpeed="max">
        <route edges="-13797599#4 -13797599#3 -13797599#1 -1016548268#1 -1016548268#0 -1028339894 -212710692#1 -212710692#0 191987944 -1016388206#5 39608992#1 448809958 456405094#0 456405094#1 39609005#0 39609005#1 -456405098"/>
    </vehicle>
    <vehicle id="bus76" type="bus_bus" depart="5283.37" departLane="best" departSpeed="max">
        <route edges="456405098 39609005#2 39609005#3 39609005#4 39609005#5 39609005#6 39609005#7 39609005#8 39609005#9 39609005#10 -448809958 39608973#1 -1016388206#3 39598458#0 39598232#0 456405100#0 456405100#1 456405100#2 105637466#1 39633790#0 39633790#1 39633790#2 453761206#1 178413106 -482122892#5 -482122892#4 -482122892#3 -482122892#2 -482122892#1 -482122892#0"/>
    </vehicle>
    <vehicle id="bus77" type="bus_bus" depart="5352.89" departLane="best" departSpeed="max">
        <route edges="37345789 -212710696#0 28785456 212710702 212710692#0 212710692#1 1028339894 1016548268#0 1016548268#1 13797599#0 13715562 453761207#0 453761207#1 34772371#0"/>
    </vehicle>
    <vehicle id="bus78" type="bus_bus" depart="5422.41" departLane="best" departSpeed="max">
        <route edges="1016548269 -1016548268#1 -1016548268#0 -1028339894 -212710692#1 -212710692#0 191987944 -1016388206#5 -1016388206#3 -1016388206#2 -39607956#7 -39607956#6 -39607956#5 263330574 30912891 263330571"/>
    </vehicle>
    <vehicle id="bus79" type="bus_bus" depart="5491.93" departLane="best" departSpeed="max">
        <route edges="306780458#0 755512797#0 755512797#1 -13797599#3 -13797599#1 -1016548268#1 -1016548268#0 -1028339894 -212710692#1 -212710692#0 191987944 -1016388206#5 -1016388206#3 -1016388206#2 -39607956#7 -39607956#6 -39607956#5 263330574 914265946"/>
    </vehicle>
    <vehicle id="bus80" type="bus_bus" depart="5561.45" departLane="best" departSpeed="max">